<?xml version="1.0" encoding="UTF-8"?>

<!-- generated on 11/23/16 21:32:29 by SUMO netconvert Version 0.28.0
<?xml version="1.0" encoding="UTF-8"?>

<configuration xmlns:xsi="http://www.w3.org/2001/XMLSchema-instance" xsi:noNamespaceSchemaLocation="http://sumo.dlr.de/xsd/netconvertConfiguration.xsd">

    <input>
        <node-files value="testworld.nod.xml"/>
        <edge-files value="testworld.edg.xml"/>
    </input>

    <output>
        <output-file value="testworld.net.xml"/>
    </output>

</configuration>
-->

<net version="0.27" xmlns:xsi="http://www.w3.org/2001/XMLSchema-instance" xsi:noNamespaceSchemaLocation="http://sumo.dlr.de/xsd/net_file.xsd">

    <location netOffset="100.00,0.00" convBoundary="0.00,0.00,200.00,100.00" origBoundary="-100.00,0.00,100.00,100.00" projParameter="!"/>

    <edge id=":2_0" function="internal">
        <lane id=":2_0_0" index="0" speed="13.90" length="6.25" shape="98.50,-1.65 104.75,-1.65"/>
    </edge>
    <edge id=":2_1" function="internal">
        <lane id=":2_1_0" index="0" speed="13.90" length="5.04" shape="98.50,-1.65 99.88,-1.46 100.86,-0.88 101.45,0.09 101.65,1.45"/>
    </edge>

    <edge id="1to2" from="1" to="2" priority="-1">
        <lane id="1to2_0" index="0" speed="13.90" length="98.50" shape="0.00,-1.65 98.50,-1.65"/>
    </edge>
    <edge id="2to3" from="2" to="3" priority="-1">
        <lane id="2to3_0" index="0" speed="13.90" length="98.55" shape="101.65,1.45 101.65,100.00"/>
    </edge>
    <edge id="2to4" from="2" to="4" priority="-1">
        <lane id="2to4_0" index="0" speed="13.90" length="95.25" shape="104.75,-1.65 200.00,-1.65"/>
    </edge>

    <junction id="1" type="unregulated" x="0.00" y="0.00" incLanes="" intLanes="" shape="0.00,-0.05 0.00,-3.25"/>
    <junction id="2" type="priority" x="100.00" y="0.00" incLanes="1to2_0" intLanes=":2_0_0 :2_1_0" shape="100.05,1.45 103.25,1.45 104.75,-0.05 104.75,-3.25 98.50,-3.25 98.50,-0.05">
        <request index="0" response="00" foes="00" cont="0"/>
        <request index="1" response="00" foes="00" cont="0"/>
    </junction>
    <junction id="3" type="unregulated" x="100.00" y="100.00" incLanes="2to3_0" intLanes="" shape="103.25,100.00 100.05,100.00"/>
    <junction id="4" type="unregulated" x="200.00" y="0.00" incLanes="2to4_0" intLanes="" shape="200.00,-3.25 200.00,-0.05"/>

    <connection from="1to2" to="2to4" fromLane="0" toLane="0" via=":2_0_0" dir="s" state="M"/>
    <connection from="1to2" to="2to3" fromLane="0" toLane="0" via=":2_1_0" dir="l" state="M"/>

    <connection from=":2_0" to="2to4" fromLane="0" toLane="0" dir="s" state="M"/>
    <connection from=":2_1" to="2to3" fromLane="0" toLane="0" dir="s" state="M"/>

</net>
