<?xml version="1.0" encoding="UTF-8"?>

<!-- generated on 11/27/16 16:10:14 by SUMO netconvert Version 0.28.0
<?xml version="1.0" encoding="UTF-8"?>

<configuration xmlns:xsi="http://www.w3.org/2001/XMLSchema-instance" xsi:noNamespaceSchemaLocation="http://sumo.dlr.de/xsd/netconvertConfiguration.xsd">

    <input>
        <node-files value="pedcrossing.nod.xml"/>
        <edge-files value="pedcrossing.edg.xml"/>
    </input>

    <output>
        <output-file value="pedcrossing.net.xml"/>
    </output>

</configuration>
-->

<net version="0.27" xmlns:xsi="http://www.w3.org/2001/XMLSchema-instance" xsi:noNamespaceSchemaLocation="http://sumo.dlr.de/xsd/net_file.xsd">

    <location netOffset="100.00,50.00" convBoundary="0.00,0.00,200.00,100.00" origBoundary="-10000000000.00,-10000000000.00,10000000000.00,10000000000.00" projParameter="!"/>

    <edge id=":C_0" function="internal">
        <lane id=":C_0_0" index="0" disallow="pedestrian" speed="13.89" length="6.00" shape="103.00,54.95 97.00,54.95"/>
        <lane id=":C_0_1" index="1" disallow="pedestrian" speed="13.89" length="6.00" shape="103.00,51.65 97.00,51.65"/>
    </edge>
    <edge id=":C_2" function="internal">
        <lane id=":C_2_0" index="0" disallow="pedestrian" speed="13.89" length="2.41" shape="103.00,51.65 101.76,50.82 101.35,50.00"/>
    </edge>
    <edge id=":C_6" function="internal">
        <lane id=":C_6_0" index="0" speed="13.89" length="2.41" shape="101.35,50.00 101.76,49.17 103.00,48.35"/>
    </edge>
    <edge id=":C_3" function="internal">
        <lane id=":C_3_0" index="0" disallow="pedestrian" speed="13.89" length="6.00" shape="97.00,45.05 103.00,45.05"/>
        <lane id=":C_3_1" index="1" disallow="pedestrian" speed="13.89" length="6.00" shape="97.00,48.35 103.00,48.35"/>
    </edge>
    <edge id=":C_5" function="internal">
        <lane id=":C_5_0" index="0" disallow="pedestrian" speed="13.89" length="2.41" shape="97.00,48.35 98.24,49.18 98.65,50.00"/>
    </edge>
    <edge id=":C_7" function="internal">
        <lane id=":C_7_0" index="0" speed="13.89" length="2.41" shape="98.65,50.00 98.24,50.83 97.00,51.65"/>
    </edge>
    <edge id=":E_0" function="internal">
        <lane id=":E_0_0" index="0" disallow="pedestrian" speed="13.89" length="4.82" shape="200.00,48.35 201.24,49.18 201.65,50.00 201.24,50.83 200.00,51.65"/>
    </edge>
    <edge id=":W_0" function="internal">
        <lane id=":W_0_0" index="0" disallow="pedestrian" speed="13.89" length="4.82" shape="0.00,51.65 -1.24,50.82 -1.65,50.00 -1.24,49.17 0.00,48.35"/>
    </edge>

    <edge id="CE" from="C" to="E" priority="1">
        <lane id="CE_0" index="0" disallow="pedestrian" speed="13.89" length="97.00" shape="103.00,45.05 200.00,45.05"/>
        <lane id="CE_1" index="1" disallow="pedestrian" speed="13.89" length="97.00" shape="103.00,48.35 200.00,48.35"/>
    </edge>
    <edge id="CS" from="C" to="S" priority="1" spreadType="center">
        <lane id="CS_0" index="0" allow="pedestrian" speed="5.00" length="41.95" width="3.00" shape="100.00,41.95 100.00,0.00"/>
    </edge>
    <edge id="CW" from="C" to="W" priority="1">
        <lane id="CW_0" index="0" disallow="pedestrian" speed="13.89" length="97.00" shape="97.00,54.95 0.00,54.95"/>
        <lane id="CW_1" index="1" disallow="pedestrian" speed="13.89" length="97.00" shape="97.00,51.65 0.00,51.65"/>
    </edge>
    <edge id="EC" from="E" to="C" priority="1">
        <lane id="EC_0" index="0" disallow="pedestrian" speed="13.89" length="97.00" shape="200.00,54.95 103.00,54.95"/>
        <lane id="EC_1" index="1" disallow="pedestrian" speed="13.89" length="97.00" shape="200.00,51.65 103.00,51.65"/>
    </edge>
    <edge id="NC" from="N" to="C" priority="1" spreadType="center">
        <lane id="NC_0" index="0" allow="pedestrian" speed="5.00" length="41.95" width="3.00" shape="100.00,100.00 100.00,58.05"/>
    </edge>
    <edge id="WC" from="W" to="C" priority="1">
        <lane id="WC_0" index="0" disallow="pedestrian" speed="13.89" length="97.00" shape="0.00,45.05 97.00,45.05"/>
        <lane id="WC_1" index="1" disallow="pedestrian" speed="13.89" length="97.00" shape="0.00,48.35 97.00,48.35"/>
    </edge>

    <tlLogic id="C" type="static" programID="0" offset="0">
        <phase duration="86" state="GGgGGg"/>
        <phase duration="4" state="yyyyyy"/>
    </tlLogic>

    <junction id="C" type="traffic_light" x="100.00" y="50.00" incLanes="NC_0 EC_0 EC_1 WC_0 WC_1" intLanes=":C_0_0 :C_0_1 :C_6_0 :C_3_0 :C_3_1 :C_7_0" shape="98.50,58.05 101.50,58.05 103.00,56.55 103.00,43.45 101.50,41.95 98.50,41.95 97.00,43.45 97.00,56.55">
        <request index="0" response="000000" foes="100000" cont="0"/>
        <request index="1" response="000000" foes="100000" cont="0"/>
        <request index="2" response="011000" foes="011000" cont="1"/>
        <request index="3" response="000000" foes="000100" cont="0"/>
        <request index="4" response="000000" foes="000100" cont="0"/>
        <request index="5" response="000011" foes="000011" cont="1"/>
    </junction>
    <junction id="E" type="unregulated" x="200.00" y="50.00" incLanes="CE_0 CE_1" intLanes=":E_0_0" shape="200.00,50.05 200.00,43.45 200.00,49.95"/>
    <junction id="N" type="unregulated" x="100.00" y="100.00" incLanes="" intLanes="" shape="101.50,100.00 98.50,100.00"/>
    <junction id="S" type="unregulated" x="100.00" y="0.00" incLanes="CS_0" intLanes="" shape="98.50,0.00 101.50,0.00"/>
    <junction id="W" type="unregulated" x="0.00" y="50.00" incLanes="CW_0 CW_1" intLanes=":W_0_0" shape="0.00,49.95 0.00,56.55 0.00,50.05"/>

    <junction id=":C_6_0" type="internal" x="101.35" y="50.00" incLanes=":C_2_0 WC_0 WC_1" intLanes=":C_3_0 :C_3_1"/>
    <junction id=":C_7_0" type="internal" x="98.65" y="50.00" incLanes=":C_5_0 EC_0 EC_1" intLanes=":C_0_0 :C_0_1"/>

    <connection from="CE" to="EC" fromLane="1" toLane="1" via=":E_0_0" dir="t" state="M"/>
    <connection from="CW" to="WC" fromLane="1" toLane="1" via=":W_0_0" dir="t" state="M"/>
    <connection from="EC" to="CW" fromLane="0" toLane="0" via=":C_0_0" tl="C" linkIndex="0" dir="s" state="o"/>
    <connection from="EC" to="CW" fromLane="1" toLane="1" via=":C_0_1" tl="C" linkIndex="1" dir="s" state="o"/>
    <connection from="EC" to="CE" fromLane="1" toLane="1" via=":C_2_0" tl="C" linkIndex="2" dir="t" state="o"/>
    <connection from="WC" to="CE" fromLane="0" toLane="0" via=":C_3_0" tl="C" linkIndex="3" dir="s" state="o"/>
    <connection from="WC" to="CE" fromLane="1" toLane="1" via=":C_3_1" tl="C" linkIndex="4" dir="s" state="o"/>
    <connection from="WC" to="CW" fromLane="1" toLane="1" via=":C_5_0" tl="C" linkIndex="5" dir="t" state="o"/>

    <connection from=":C_0" to="CW" fromLane="0" toLane="0" dir="s" state="M"/>
    <connection from=":C_0" to="CW" fromLane="1" toLane="1" dir="s" state="M"/>
    <connection from=":C_2" to="CE" fromLane="0" toLane="1" via=":C_6_0" dir="s" state="m"/>
    <connection from=":C_6" to="CE" fromLane="0" toLane="1" dir="s" state="M"/>
    <connection from=":C_3" to="CE" fromLane="0" toLane="0" dir="s" state="M"/>
    <connection from=":C_3" to="CE" fromLane="1" toLane="1" dir="s" state="M"/>
    <connection from=":C_5" to="CW" fromLane="0" toLane="1" via=":C_7_0" dir="s" state="m"/>
    <connection from=":C_7" to="CW" fromLane="0" toLane="1" dir="s" state="M"/>
    <connection from=":E_0" to="EC" fromLane="0" toLane="1" dir="s" state="M"/>
    <connection from=":W_0" to="WC" fromLane="0" toLane="1" dir="s" state="M"/>

</net>
