<?xml version="1.0" encoding="UTF-8"?>

<!-- generated on 11/27/16 14:12:19 by SUMO polyconvert Version 0.28.0
<?xml version="1.0" encoding="UTF-8"?>

<configuration xmlns:xsi="http://www.w3.org/2001/XMLSchema-instance" xsi:noNamespaceSchemaLocation="http://sumo.dlr.de/xsd/polyconvertConfiguration.xsd">

    <input>
        <net-file value="C:\Users\johnldean\Sumo\2016-11-27-14-12-17\osm.net.xml"/>
        <osm-files value="osm_bbox.osm.xml"/>
        <osm.keep-full-type value="true"/>
        <type-file value="C:\Program%20Files%20(x86)\DLR\Sumo\data\typemap\osmPolyconvert.typ.xml"/>
    </input>

    <output>
        <output-file value="C:\Users\johnldean\Sumo\2016-11-27-14-12-17\osm.poly.xml"/>
    </output>

    <processing>
        <poi-layer-offset value="5"/>
    </processing>

    <report>
        <verbose value="true"/>
    </report>

</configuration>
-->

<additional xmlns:xsi="http://www.w3.org/2001/XMLSchema-instance" xsi:noNamespaceSchemaLocation="http://sumo.dlr.de/xsd/additional_file.xsd">
    <location netOffset="-575559.27,-4141809.08" convBoundary="-823.76,-3084.45,1083.04,782.69" origBoundary="-122.155542,37.392239,-122.133794,37.427009" projParameter="+proj=utm +zone=10 +ellps=WGS84 +datum=WGS84 +units=m +no_defs"/>

    <poly id="118615893" type="amenity.parking" color="184,184,179" fill="1" layer="-1.00" shape="664.05,619.50 644.86,590.43 641.96,587.04 638.17,583.86 633.01,580.68 628.53,578.62 622.68,577.90 618.85,577.86 612.08,578.92 609.20,573.96 605.58,575.94 598.70,564.44 602.33,561.78 584.36,532.47 550.17,554.02 530.36,524.32 510.22,536.73 488.67,504.91 611.69,425.51 680.29,533.34 663.07,544.62 661.61,557.17 702.25,619.43 689.80,626.50 677.50,616.52 666.82,623.12 664.05,619.50"/>
    <poly id="120616090" type="amenity.restaurant" color="237,199,199" fill="1" layer="-1.00" shape="254.27,451.27 278.10,435.69 268.00,420.57 244.31,435.97 254.27,451.27"/>
    <poly id="120616090#1" type="building.yes" color="255,230,230" fill="1" layer="-1.00" shape="254.27,451.27 278.10,435.69 268.00,420.57 244.31,435.97 254.27,451.27"/>
    <poly id="120616094" type="building.yes" color="255,230,230" fill="1" layer="-1.00" shape="278.10,435.69 285.08,431.07 274.98,415.95 268.00,420.57 278.10,435.69"/>
    <poly id="120616094#1" type="shop.electronics" color="237,199,255" fill="1" layer="-1.00" shape="278.10,435.69 285.08,431.07 274.98,415.95 268.00,420.57 278.10,435.69"/>
    <poly id="134868552" type="building.yes" color="255,230,230" fill="1" layer="-1.00" shape="222.39,353.11 229.24,348.71 219.23,333.22 212.37,337.62 222.39,353.11"/>
    <poly id="160294033" type="building.commercial" color="255,230,230" fill="1" layer="-1.00" shape="135.83,454.75 114.62,422.93 116.21,421.89 114.29,419.01 127.82,410.08 129.21,412.18 130.52,411.31 152.42,444.15 150.72,445.28 152.12,447.38 147.27,450.59 146.39,449.27 142.72,451.70 143.49,452.85 138.41,456.21 136.95,454.01 135.83,454.75"/>
    <poly id="161334794" type="building.office" color="255,230,230" fill="1" layer="-1.00" shape="99.70,211.17 113.32,232.38 137.27,217.13 123.75,196.07 144.83,182.64 141.79,177.90 145.51,175.53 147.37,173.24 148.84,170.83 149.40,167.73 149.33,163.70 148.27,160.45 146.70,157.19 151.00,154.45 136.67,132.12 158.13,118.45 143.03,94.92 122.13,108.22 109.02,87.81 84.64,103.32 98.32,124.60 83.38,134.12 69.84,113.02 45.86,128.29 59.40,149.38 38.33,162.79 53.53,186.48 75.01,172.80 84.94,188.27 63.38,201.99 78.10,224.92 99.70,211.17"/>
    <poly id="163380881" type="amenity.parking" color="184,184,179" fill="1" layer="-1.00" shape="625.04,143.82 634.83,137.53 612.35,103.64 614.98,101.89 610.01,93.90 622.80,86.31 632.21,100.27 638.54,96.20 639.83,98.24 648.83,92.53 621.98,50.78 581.98,76.89 625.04,143.82"/>
    <poly id="167031510" type="amenity.parking" color="184,184,179" fill="1" layer="-1.00" shape="754.71,573.89 771.33,572.39 769.74,539.53 767.22,529.34 789.81,551.05 805.88,557.35 827.60,544.31 736.14,398.36 725.40,404.64 635.88,260.39 614.32,274.58 702.79,411.52 726.38,454.04 738.22,482.76 745.34,508.11 751.01,537.46 754.71,573.89"/>
    <poly id="168944933" type="landuse.retail" color="194,194,130" fill="1" layer="-3.00" shape="121.53,513.59 185.43,472.79 206.83,507.38 175.44,527.30 183.51,540.97 152.19,561.60 121.53,513.59"/>
    <poly id="232276143" type="building.yes" color="255,230,230" fill="1" layer="-1.00" shape="380.78,349.32 394.69,370.87 401.82,366.31 401.29,365.50 387.90,344.76 380.78,349.32"/>
    <poly id="232276143#1" type="shop.electronics" color="237,199,255" fill="1" layer="-1.00" shape="380.78,349.32 394.69,370.87 401.82,366.31 401.29,365.50 387.90,344.76 380.78,349.32"/>
    <poly id="232276530" type="building.yes" color="255,230,230" fill="1" layer="-1.00" shape="304.00,424.24 305.45,423.36 307.46,426.67 319.00,418.78 325.25,428.79 331.08,425.13 334.94,430.99 329.19,434.80 334.17,442.51 328.66,446.13 330.78,449.29 329.08,450.42 333.54,457.56 334.33,457.07 336.73,461.31 335.63,462.02 339.11,467.18 344.07,463.86 343.34,462.79 346.15,461.07 346.57,461.67 353.89,456.89 353.68,456.21 357.03,453.96 350.40,442.92 352.34,441.69 352.95,441.25 353.22,440.38 353.00,439.74 350.85,436.12 349.59,436.84 348.36,434.76 349.73,433.60 341.88,420.42 341.17,421.07 338.92,417.39 339.63,416.92 334.29,409.00 334.62,408.55 332.48,404.73 331.40,404.03 330.38,403.97 326.53,406.37 318.90,396.06 315.98,398.02 315.30,397.08 299.45,407.65 299.49,408.70 296.60,408.34 295.97,414.21 300.17,414.91 300.99,416.40 299.48,417.50 304.00,424.24"/>
    <poly id="232276543" type="building.yes" color="255,230,230" fill="1" layer="-1.00" shape="410.26,353.98 429.24,341.82 417.26,323.27 398.53,335.26 400.63,338.50 398.29,340.00 407.10,353.66 409.18,352.32 410.26,353.98"/>
    <poly id="232276552" type="building.yes" color="255,230,230" fill="1" layer="-1.00" shape="545.53,422.23 551.65,431.79 559.98,426.49 562.59,430.58 575.67,422.28 573.99,419.66 571.80,421.05 570.92,419.67 571.44,419.34 567.43,413.09 566.71,413.55 564.54,410.16 545.53,422.23"/>
    <poly id="232276553" type="building.yes" color="255,230,230" fill="1" layer="-1.00" shape="462.67,293.08 476.46,314.19 481.73,310.78 480.50,311.57 480.80,312.04 482.03,311.24 497.64,301.13 483.54,279.57 462.67,293.08"/>
    <poly id="232276556" type="building.yes" color="255,230,230" fill="1" layer="-1.00" shape="505.86,276.47 500.55,268.31 490.81,274.59 491.18,275.17 489.55,276.22 490.50,277.66 488.34,279.06 512.31,315.88 513.89,314.86 517.60,320.56 521.97,317.74 526.37,324.51 547.83,310.66 544.52,305.57 543.48,306.24 543.04,305.55 530.76,313.48 525.76,305.79 520.83,308.97 518.44,305.30 519.31,304.73 512.26,293.90 511.82,294.19 501.93,278.99 505.86,276.47"/>
    <poly id="232276564" type="building.yes" color="255,230,230" fill="1" layer="-1.00" shape="583.97,266.22 590.10,262.26 574.44,238.21 575.97,237.23 570.02,228.10 561.08,233.88 567.20,243.26 568.47,242.44 583.97,266.22"/>
    <poly id="232276577" type="building.yes" color="255,230,230" fill="1" layer="-1.00" shape="634.97,204.66 632.46,200.99 628.76,203.49 631.26,207.17 634.97,204.66"/>
    <poly id="232276578" type="building.yes" color="255,230,230" fill="1" layer="-1.00" shape="651.65,222.01 663.68,214.36 641.38,179.59 629.35,187.23 651.65,222.01"/>
    <poly id="232276693" type="building.yes" color="255,230,230" fill="1" layer="-1.00" shape="516.70,441.55 520.50,447.88 525.37,444.97 525.61,445.37 529.79,442.88 527.56,439.16 526.31,439.90 524.51,436.91 516.70,441.55"/>
    <poly id="232276697" type="building.yes" color="255,230,230" fill="1" layer="-1.00" shape="509.80,449.84 509.64,448.39 509.92,446.62 508.15,446.27 508.52,444.50 510.04,443.07 510.56,443.85 511.45,443.19 513.41,441.88 511.06,438.31 512.30,437.54 511.52,436.20 513.12,435.22 514.17,436.89 522.36,431.64 519.39,427.07 518.50,427.72 517.28,425.72 507.40,432.06 503.40,434.13 501.15,437.44 500.01,436.54 497.59,439.96 496.67,443.72 498.79,443.85 497.69,448.62 498.63,451.95 500.23,451.74 500.90,455.63 503.08,459.09 512.78,452.86 512.08,451.74 511.75,449.74 509.80,449.84"/>
    <poly id="232276699" type="building.yes" color="255,230,230" fill="1" layer="-1.00" shape="642.88,374.61 636.68,364.87 627.52,370.66 631.14,376.33 630.84,376.51 633.42,380.57 642.88,374.61"/>
    <poly id="232276708" type="building.yes" color="255,230,230" fill="1" layer="-1.00" shape="345.06,539.76 343.13,536.77 343.80,536.33 341.70,533.07 338.75,534.95 336.92,532.11 337.69,531.63 335.97,528.96 335.35,529.35 331.62,523.56 334.36,521.81 332.64,519.14 332.18,519.44 329.12,514.68 330.53,513.79 328.73,511.00 327.91,511.53 326.34,509.08 327.17,508.54 325.37,505.73 323.89,506.67 320.78,501.84 321.19,501.57 319.33,498.70 316.53,500.48 312.92,494.86 313.39,494.57 311.72,491.97 311.18,492.32 309.38,489.53 312.21,487.73 310.08,484.43 309.59,484.75 307.73,481.85 300.53,486.45 299.93,485.54 296.98,487.42 297.61,488.40 297.05,488.75 298.93,491.67 296.46,493.25 296.84,493.83 290.96,497.58 292.35,499.75 290.48,500.94 289.99,500.18 283.94,504.04 284.59,505.05 283.53,505.73 286.81,510.83 287.63,510.30 292.93,518.53 296.65,516.14 296.36,515.68 298.69,514.19 298.95,514.59 301.44,513.00 301.10,512.49 303.77,510.79 304.56,512.01 305.44,511.44 309.65,517.97 309.22,518.23 312.52,523.35 312.97,523.07 317.20,529.64 316.33,530.20 317.14,531.45 314.67,533.04 314.38,532.59 311.61,534.36 312.02,535.01 309.91,536.37 309.48,535.70 305.62,538.17 310.97,546.46 310.33,546.88 313.65,552.01 314.47,551.48 315.05,552.37 321.08,548.52 320.56,547.69 322.35,546.54 323.77,548.75 329.84,544.88 330.16,545.36 332.59,543.81 334.50,546.75 335.14,546.35 335.65,547.15 338.49,545.34 337.85,544.35 345.06,539.76"/>
    <poly id="232276712" type="building.yes" color="255,230,230" fill="1" layer="-1.00" shape="633.61,357.24 630.04,351.72 621.10,357.44 622.62,359.82 621.61,360.47 624.70,365.26 631.19,361.11 632.84,363.69 638.19,360.28 635.46,356.06 633.61,357.24"/>
    <poly id="232276713" type="building.yes" color="255,230,230" fill="1" layer="-1.00" shape="544.11,407.94 549.86,417.20 560.73,410.52 558.18,406.41 559.60,405.53 556.40,400.38 544.11,407.94"/>
    <poly id="232276722" type="building.yes" color="255,230,230" fill="1" layer="-1.00" shape="500.75,427.47 512.75,420.08 511.01,417.27 512.23,416.53 508.60,410.69 501.46,415.09 501.83,415.68 497.30,418.47 499.81,422.52 498.26,423.47 500.75,427.47"/>
    <poly id="232276726" type="building.yes" color="255,230,230" fill="1" layer="-1.00" shape="620.40,340.49 610.52,346.70 612.78,350.26 613.58,349.77 615.44,352.70 618.81,350.59 620.48,353.22 626.19,349.63 620.40,340.49"/>
    <poly id="232276727" type="building.yes" color="255,230,230" fill="1" layer="-1.00" shape="535.16,395.20 539.58,401.56 549.18,394.94 547.30,392.21 550.51,389.99 547.99,386.36 535.16,395.20"/>
    <poly id="232276731" type="building.yes" color="255,230,230" fill="1" layer="-1.00" shape="459.70,457.03 468.60,451.59 466.52,448.22 464.56,449.43 460.98,443.65 453.39,448.31 453.67,448.76 451.85,449.87 455.11,455.15 456.28,454.44 457.07,455.71 458.39,454.90 459.70,457.03"/>
    <poly id="232276742" type="building.yes" color="255,230,230" fill="1" layer="-1.00" shape="570.37,354.37 575.87,363.45 582.24,359.61 580.73,357.13 583.91,355.21 579.91,348.63 570.37,354.37"/>
    <poly id="232276743" type="building.yes" color="255,230,230" fill="1" layer="-1.00" shape="484.80,407.03 487.29,410.95 495.47,405.80 497.54,409.05 495.76,410.16 498.26,414.10 507.45,408.32 504.27,403.30 503.53,403.75 501.59,400.69 499.81,401.80 497.90,398.79 484.80,407.03"/>
    <poly id="232276746" type="building.yes" color="255,230,230" fill="1" layer="-1.00" shape="611.35,325.27 605.16,329.29 606.81,331.81 604.68,333.19 605.60,334.59 605.01,334.97 607.60,338.92 608.67,338.23 609.75,339.88 618.54,334.18 614.65,328.23 613.69,328.84 611.35,325.27"/>
    <poly id="232276748" type="building.yes" color="255,230,230" fill="1" layer="-1.00" shape="545.97,379.76 544.94,378.19 546.99,376.86 543.30,371.21 540.31,373.16 539.61,372.07 536.74,373.93 536.49,373.56 526.11,380.29 531.78,388.97 545.97,379.76"/>
    <poly id="232276751" type="building.yes" color="255,230,230" fill="1" layer="-1.00" shape="456.34,437.39 454.51,434.49 453.80,434.92 452.75,433.36 454.80,432.05 452.53,428.48 442.30,434.82 445.52,439.95 446.59,439.30 448.51,442.31 456.34,437.39"/>
    <poly id="232276756" type="building.yes" color="255,230,230" fill="1" layer="-1.00" shape="378.12,459.42 367.24,466.41 368.82,468.84 366.67,470.22 365.09,467.79 348.65,478.34 350.26,480.81 348.56,481.90 346.96,479.43 341.52,482.91 365.87,520.52 396.57,500.82 390.09,490.83 379.26,497.79 381.11,500.63 372.26,506.31 370.54,503.65 369.38,504.40 362.46,493.71 365.68,491.64 361.72,485.52 359.65,486.85 358.70,485.36 367.49,479.72 367.93,480.39 378.76,473.43 376.81,470.41 385.33,464.96 384.71,464.01 390.26,460.44 393.36,465.23 378.42,474.81 384.92,484.85 392.45,480.01 399.52,475.47 394.87,468.28 396.82,467.04 401.21,473.82 412.44,466.61 406.90,458.04 406.10,458.55 400.92,450.55 399.70,451.33 398.66,449.72 400.63,448.45 392.57,436.00 391.76,436.51 387.24,429.52 388.17,428.92 382.79,420.62 376.53,424.63 377.08,425.46 368.99,430.64 369.43,431.33 367.66,432.46 366.86,431.22 361.47,434.69 366.92,443.12 368.14,442.33 370.54,446.03 377.80,441.35 379.27,443.64 371.24,448.79 378.12,459.42"/>
    <poly id="232276758" type="building.yes" color="255,230,230" fill="1" layer="-1.00" shape="551.62,363.55 582.28,343.39 573.57,330.25 542.92,350.42 551.62,363.55"/>
    <poly id="232276759" type="building.yes" color="255,230,230" fill="1" layer="-1.00" shape="478.45,395.79 484.99,405.98 500.64,396.02 494.09,385.83 478.45,395.79"/>
    <poly id="232276762" type="building.yes" color="255,230,230" fill="1" layer="-1.00" shape="604.52,314.29 595.76,319.89 600.15,326.69 603.88,324.32 605.77,327.26 610.85,324.01 608.71,320.69 608.02,321.13 606.77,319.18 615.36,313.69 615.69,314.21 619.91,311.50 615.83,305.19 603.66,312.96 604.52,314.29"/>
    <poly id="232276763" type="building.yes" color="255,230,230" fill="1" layer="-1.00" shape="450.02,411.19 433.42,422.19 436.89,427.39 436.33,427.77 438.41,430.90 446.72,425.39 445.97,424.27 447.53,423.23 445.92,420.80 444.56,421.71 443.95,420.80 446.03,419.42 446.50,420.12 450.86,417.22 450.13,416.12 452.34,414.66 450.02,411.19"/>
    <poly id="232276764" type="building.yes" color="255,230,230" fill="1" layer="-1.00" shape="517.63,368.24 523.17,376.36 524.39,375.54 524.90,376.29 531.79,371.62 531.51,371.22 532.49,370.55 532.76,370.96 535.92,368.82 529.87,359.96 517.63,368.24"/>
    <poly id="232276776" type="building.yes" color="255,230,230" fill="1" layer="-1.00" shape="565.82,329.05 561.72,322.90 546.38,333.06 551.82,341.22 566.23,331.67 564.89,329.66 565.82,329.05"/>
    <poly id="232276777" type="building.yes" color="255,230,230" fill="1" layer="-1.00" shape="469.27,383.13 474.26,391.39 490.15,381.90 486.89,376.49 483.18,378.70 481.52,375.95 479.55,377.13 478.46,375.34 471.56,379.47 472.05,380.28 468.74,382.24 469.27,383.13"/>
    <poly id="232276780" type="building.yes" color="255,230,230" fill="1" layer="-1.00" shape="600.90,309.83 594.59,300.39 588.49,304.43 589.81,306.40 587.20,308.13 589.47,311.53 588.91,311.90 591.64,315.98 600.90,309.83"/>
    <poly id="232276781" type="building.yes" color="255,230,230" fill="1" layer="-1.00" shape="439.12,412.34 436.14,407.56 438.03,406.39 435.93,403.02 425.87,409.25 429.05,414.35 430.48,413.46 432.38,416.51 439.12,412.34"/>
    <poly id="232276782" type="building.yes" color="255,230,230" fill="1" layer="-1.00" shape="514.96,363.55 524.49,357.43 518.90,348.78 509.37,354.90 514.96,363.55"/>
    <poly id="232276791" type="building.yes" color="255,230,230" fill="1" layer="-1.00" shape="559.11,320.04 553.86,312.12 544.87,318.02 550.11,325.95 559.11,320.04"/>
    <poly id="232276795" type="building.yes" color="255,230,230" fill="1" layer="-1.00" shape="478.82,369.28 477.58,367.31 480.71,365.36 476.71,359.01 460.98,368.84 461.69,369.96 457.20,372.78 462.47,381.14 471.43,375.55 471.96,376.38 478.00,372.60 476.73,370.58 478.82,369.28"/>
    <poly id="232276797" type="building.yes" color="255,230,230" fill="1" layer="-1.00" shape="600.01,292.53 594.10,283.72 578.63,294.00 582.27,299.42 585.50,297.28 586.84,299.29 588.61,298.11 589.98,300.16 596.99,295.50 596.55,294.83 600.01,292.53"/>
    <poly id="232276798" type="building.yes" color="255,230,230" fill="1" layer="-1.00" shape="501.07,342.49 506.64,351.09 511.56,347.93 511.90,348.46 520.09,343.20 516.88,338.25 521.35,335.38 518.64,331.20 501.07,342.49"/>
    <poly id="232276800" type="building.yes" color="255,230,230" fill="1" layer="-1.00" shape="208.81,516.86 204.98,510.73 191.89,519.04 196.25,525.96 206.13,519.72 205.61,518.83 208.81,516.86"/>
    <poly id="232276801" type="building.yes" color="255,230,230" fill="1" layer="-1.00" shape="239.57,479.78 224.80,489.41 224.39,489.68 225.28,491.04 225.69,490.78 247.66,524.35 262.44,514.72 239.57,479.78"/>
    <poly id="232276802" type="building.yes" color="255,230,230" fill="1" layer="-1.00" shape="448.79,364.48 452.79,370.88 476.69,356.08 471.08,347.09 449.10,360.71 447.86,358.69 447.62,358.44 447.16,358.25 446.65,358.31 440.39,362.37 443.68,367.64 448.79,364.48"/>
    <poly id="232276804" type="building.yes" color="255,230,230" fill="1" layer="-1.00" shape="499.88,340.52 510.80,333.33 504.32,323.58 493.40,330.77 499.88,340.52"/>
    <poly id="232276805" type="building.yes" color="255,230,230" fill="1" layer="-1.00" shape="521.91,328.00 517.06,320.41 511.04,324.22 515.89,331.81 521.91,328.00"/>
    <poly id="232276820" type="building.yes" color="255,230,230" fill="1" layer="-1.00" shape="583.74,386.35 586.58,390.75 606.53,377.97 600.42,368.51 580.95,380.99 580.03,379.57 581.93,378.35 574.13,366.30 560.53,375.00 568.67,387.61 570.58,386.39 570.85,386.80 569.04,387.96 572.60,393.48 583.74,386.35"/>
    <poly id="232276822" type="building.yes" color="255,230,230" fill="1" layer="-1.00" shape="456.83,460.48 465.02,473.24 495.98,453.53 487.79,440.77 456.83,460.48"/>
    <poly id="232276828" type="building.yes" color="255,230,230" fill="1" layer="-1.00" shape="541.44,245.86 560.47,275.72 576.74,265.44 564.23,245.80 565.00,245.32 558.48,235.10 541.44,245.86"/>
    <poly id="232276828#1" type="shop.bicycle" color="237,199,255" fill="1" layer="-1.00" shape="541.44,245.86 560.47,275.72 576.74,265.44 564.23,245.80 565.00,245.32 558.48,235.10 541.44,245.86"/>
    <poly id="232276831" type="amenity.restaurant" color="237,199,199" fill="1" layer="-1.00" shape="151.55,538.52 151.17,540.01 153.52,540.60 165.07,533.74 165.13,531.72 164.60,530.92 165.33,530.48 164.65,529.36 163.95,529.76 163.31,528.88 164.22,528.92 164.77,528.67 165.20,528.26 165.47,527.64 165.50,527.12 165.37,526.63 164.90,526.01 165.63,520.85 160.61,519.67 157.97,515.57 159.02,509.03 158.98,507.96 158.66,507.17 158.05,506.46 154.76,505.73 155.62,501.29 149.74,499.84 149.59,500.86 146.00,500.56 145.39,501.21 145.05,500.40 144.10,499.74 143.00,499.77 135.88,504.60 136.34,505.49 128.83,510.25 129.68,511.56 128.88,512.11 132.81,517.87 130.93,518.86 129.35,526.34 133.43,532.51 138.95,533.70 145.61,529.32 146.24,530.44 145.51,530.98 148.00,534.97 148.84,534.50 151.55,538.52"/>
    <poly id="232276831#1" type="building.yes" color="255,230,230" fill="1" layer="-1.00" shape="151.55,538.52 151.17,540.01 153.52,540.60 165.07,533.74 165.13,531.72 164.60,530.92 165.33,530.48 164.65,529.36 163.95,529.76 163.31,528.88 164.22,528.92 164.77,528.67 165.20,528.26 165.47,527.64 165.50,527.12 165.37,526.63 164.90,526.01 165.63,520.85 160.61,519.67 157.97,515.57 159.02,509.03 158.98,507.96 158.66,507.17 158.05,506.46 154.76,505.73 155.62,501.29 149.74,499.84 149.59,500.86 146.00,500.56 145.39,501.21 145.05,500.40 144.10,499.74 143.00,499.77 135.88,504.60 136.34,505.49 128.83,510.25 129.68,511.56 128.88,512.11 132.81,517.87 130.93,518.86 129.35,526.34 133.43,532.51 138.95,533.70 145.61,529.32 146.24,530.44 145.51,530.98 148.00,534.97 148.84,534.50 151.55,538.52"/>
    <poly id="232276840" type="amenity.veterinary" color="237,199,199" fill="1" layer="-1.00" shape="436.37,400.78 451.68,391.04 445.83,381.78 436.93,387.47 436.41,386.69 429.91,390.73 436.37,400.78"/>
    <poly id="232276840#1" type="building.yes" color="255,230,230" fill="1" layer="-1.00" shape="436.37,400.78 451.68,391.04 445.83,381.78 436.93,387.47 436.41,386.69 429.91,390.73 436.37,400.78"/>
    <poly id="232276845" type="building.yes" color="255,230,230" fill="1" layer="-1.00" shape="528.29,260.39 525.24,255.49 515.53,261.61 522.51,272.77 528.83,268.83 524.91,262.58 528.29,260.39"/>
    <poly id="232276846" type="building.yes" color="255,230,230" fill="1" layer="-1.00" shape="295.49,461.69 289.03,451.75 268.73,465.10 275.19,474.93 295.49,461.69"/>
    <poly id="232276856" type="building.yes" color="255,230,230" fill="1" layer="-1.00" shape="250.53,474.96 245.23,478.25 261.17,503.70 264.11,501.88 263.54,500.96 265.90,499.50 250.53,474.96"/>
    <poly id="232276866" type="building.yes" color="255,230,230" fill="1" layer="-1.00" shape="420.24,499.72 424.04,505.36 419.48,508.41 412.47,498.00 402.78,504.48 409.82,514.95 410.65,514.41 412.76,517.53 413.42,517.08 417.36,522.93 421.15,520.40 421.41,520.81 425.34,518.18 425.07,517.79 428.00,515.83 427.65,515.30 429.42,514.12 430.24,515.34 433.21,513.36 432.86,512.83 437.43,509.78 433.45,503.85 434.87,502.91 428.53,493.50 422.58,497.47 422.90,497.95 420.24,499.72"/>
    <poly id="232276867" type="building.yes" color="255,230,230" fill="1" layer="-1.00" shape="452.90,421.40 455.16,424.86 470.03,415.12 462.26,403.18 456.39,407.01 457.09,408.12 456.73,408.34 458.21,410.58 460.08,409.37 461.48,411.49 456.41,414.78 457.79,416.85 452.27,420.46 452.90,421.40"/>
    <poly id="232276869" type="building.yes" color="255,230,230" fill="1" layer="-1.00" shape="383.12,545.84 389.94,541.36 389.61,540.86 391.43,539.66 391.76,540.16 394.73,538.22 394.05,537.19 398.83,534.05 394.49,527.52 386.43,532.81 384.00,529.15 393.34,523.00 392.48,521.72 396.88,518.82 397.80,518.22 392.64,510.44 375.42,521.76 377.31,524.62 373.58,527.06 372.83,527.77 372.51,528.75 372.61,529.58 373.69,531.57 373.00,532.01 375.94,536.45 379.81,533.91 380.92,535.57 377.21,538.01 378.59,540.09 378.23,540.33 379.06,541.58 379.44,541.33 380.56,543.02 381.04,542.71 383.12,545.84"/>
    <poly id="232276876" type="building.yes" color="255,230,230" fill="1" layer="-1.00" shape="411.07,494.48 412.57,493.55 410.25,489.87 411.58,489.03 412.39,490.31 419.33,486.04 419.03,485.37 419.94,484.90 419.98,483.81 419.51,482.60 418.46,481.63 417.44,481.71 415.89,478.80 415.16,478.22 413.97,478.04 413.49,478.17 412.83,476.40 412.57,476.03 411.73,475.79 411.39,475.90 407.05,478.61 406.45,477.65 398.18,482.81 399.06,484.22 396.52,485.81 400.28,491.75 398.56,492.83 402.91,499.73 407.87,496.64 409.23,498.81 412.50,496.77 411.07,494.48"/>
    <poly id="232276915" type="building.yes" color="255,230,230" fill="1" layer="-1.00" shape="534.75,336.90 531.01,330.99 526.12,334.05 529.86,339.96 534.75,336.90"/>
    <poly id="232276922" type="building.yes" color="255,230,230" fill="1" layer="-1.00" shape="615.48,315.09 617.16,317.84 622.52,314.59 620.85,311.85 615.48,315.09"/>
    <poly id="232276926" type="building.yes" color="255,230,230" fill="1" layer="-1.00" shape="517.58,450.78 511.99,454.40 517.67,463.10 523.26,459.48 517.58,450.78"/>
    <poly id="232276930" type="building.yes" color="255,230,230" fill="1" layer="-1.00" shape="331.25,393.52 332.31,392.86 330.92,390.74 329.94,391.51 331.25,393.52"/>
    <poly id="232276955" type="building.yes" color="255,230,230" fill="1" layer="-1.00" shape="569.21,391.80 567.70,392.79 569.44,395.36 570.96,394.37 569.21,391.80"/>
    <poly id="232276985" type="building.yes" color="255,230,230" fill="1" layer="-1.00" shape="542.99,349.64 539.75,345.07 534.30,348.89 537.55,353.46 542.99,349.64"/>
    <poly id="232277000" type="building.yes" color="255,230,230" fill="1" layer="-1.00" shape="500.83,461.74 506.50,470.34 512.37,466.50 506.70,457.91 500.83,461.74"/>
    <poly id="232277005" type="building.yes" color="255,230,230" fill="1" layer="-1.00" shape="328.36,385.94 330.36,388.95 336.31,385.12 334.31,382.11 328.36,385.94"/>
    <poly id="232277013" type="building.yes" color="255,230,230" fill="1" layer="-1.00" shape="547.80,385.50 552.18,391.94 559.11,387.25 554.73,380.82 547.80,385.50"/>
    <poly id="232277033" type="building.yes" color="255,230,230" fill="1" layer="-1.00" shape="576.65,401.41 574.24,402.83 575.90,405.62 578.30,404.09 576.65,401.41"/>
    <poly id="232277130" type="building.yes" color="255,230,230" fill="1" layer="-1.00" shape="489.61,433.24 491.79,436.69 498.27,432.63 496.09,429.18 489.61,433.24"/>
    <poly id="232277141" type="building.yes" color="255,230,230" fill="1" layer="-1.00" shape="473.17,404.70 466.94,408.75 470.69,414.55 476.92,410.50 473.17,404.70"/>
    <poly id="232277200" type="building.yes" color="255,230,230" fill="1" layer="-1.00" shape="534.91,451.67 530.24,443.70 522.26,448.33 526.94,456.30 534.91,451.67"/>
    <poly id="232277207" type="building.yes" color="255,230,230" fill="1" layer="-1.00" shape="469.96,423.77 463.20,427.54 466.95,434.19 473.70,430.41 469.96,423.77"/>
    <poly id="232277260" type="building.yes" color="255,230,230" fill="1" layer="-1.00" shape="442.34,408.88 444.64,412.29 452.25,407.21 450.88,405.17 448.88,406.51 447.96,405.13 442.34,408.88"/>
    <poly id="232277269" type="building.yes" color="255,230,230" fill="1" layer="-1.00" shape="553.99,379.74 554.80,379.27 555.48,380.44 560.10,377.75 559.25,376.30 559.73,376.02 556.37,370.31 550.47,373.75 553.99,379.74"/>
    <poly id="232375484" type="building.office" color="255,230,230" fill="1" layer="-1.00" shape="334.06,60.34 305.78,78.56 324.17,106.88 334.33,100.34 338.20,106.30 327.25,113.35 347.11,143.93 377.46,124.39 357.55,93.72 342.03,103.71 338.17,97.78 352.43,88.61 334.06,60.34"/>
    <poly id="232375488" type="amenity.fast_food" color="237,199,199" fill="1" layer="-1.00" shape="578.19,145.92 582.54,143.25 585.04,147.26 591.91,143.03 590.96,141.48 593.14,140.12 577.22,114.52 563.80,122.78 578.19,145.92"/>
    <poly id="232375488#1" type="building.retail" color="255,230,230" fill="1" layer="-1.00" shape="578.19,145.92 582.54,143.25 585.04,147.26 591.91,143.03 590.96,141.48 593.14,140.12 577.22,114.52 563.80,122.78 578.19,145.92"/>
    <poly id="232377836" type="building.office" color="255,230,230" fill="1" layer="-1.00" shape="380.10,150.99 371.26,137.31 352.05,149.64 376.43,187.35 414.34,163.04 398.80,139.01 380.10,150.99"/>
    <poly id="232379093" type="building.office" color="255,230,230" fill="1" layer="-1.00" shape="438.55,119.90 409.91,138.34 425.19,161.87 453.83,143.41 438.55,119.90"/>
    <poly id="28885574" type="landuse.recreation_ground" color="194,194,130" fill="1" layer="-3.00" shape="168.96,407.77 110.94,317.80 239.48,235.39 292.85,317.47 238.20,351.98 214.08,315.10 198.76,324.91 227.56,369.90 168.96,407.77"/>
    <poly id="28885574#1" type="sport.soccer" color="79,230,125" fill="1" layer="-2.00" shape="168.96,407.77 110.94,317.80 239.48,235.39 292.85,317.47 238.20,351.98 214.08,315.10 198.76,324.91 227.56,369.90 168.96,407.77"/>
    <poly id="381242081" type="building.yes" color="255,230,230" fill="1" layer="-1.00" shape="387.05,343.45 387.90,344.76 401.29,365.50 405.70,362.68 406.26,363.55 411.38,360.27 407.10,353.66 398.29,340.00 396.55,337.32 393.55,339.24 395.09,341.63 393.16,342.86 391.64,340.51 387.05,343.45"/>
    <poly id="381265069" type="building.yes" color="255,230,230" fill="1" layer="-1.00" shape="445.19,316.85 451.63,326.81 458.65,322.33 452.21,312.36 445.19,316.85"/>
    <poly id="381265071" type="building.yes" color="255,230,230" fill="1" layer="-1.00" shape="440.11,308.99 445.19,316.85 452.21,312.36 452.52,312.15 447.43,304.28 440.11,308.99"/>
    <poly id="381265072" type="building.yes" color="255,230,230" fill="1" layer="-1.00" shape="446.84,330.75 452.03,327.43 451.63,326.81 445.19,316.85 440.11,308.99 434.92,312.31 446.84,330.75"/>
    <poly id="381331197" type="building.yes" color="255,230,230" fill="1" layer="-1.00" shape="587.85,248.35 590.30,246.76 583.32,236.04 580.87,237.64 587.85,248.35"/>
    <poly id="38169189" type="landuse.residential" color="235,235,227" fill="1" layer="-3.00" shape="174.10,522.28 246.02,641.37 266.20,673.86 303.24,735.15 434.08,653.03 492.95,609.71 496.25,602.25 492.39,578.93 485.79,556.68 460.58,516.75 456.26,517.91 344.33,348.34 270.35,396.45 299.68,440.88 174.10,522.28"/>
    <poly id="38169208" type="landuse.commercial" color="209,209,204" fill="1" layer="-3.00" shape="937.04,-14.74 938.39,50.91 939.53,113.11 913.39,230.86 1025.52,426.26 1061.40,406.17 1083.04,448.72 797.70,671.49 658.62,782.69 602.09,694.73 543.60,734.06 537.84,673.35 573.35,651.46 478.56,502.52 624.76,408.26 757.01,602.79 749.04,529.75 743.28,502.48 736.87,482.24 726.59,457.30 716.65,437.22 702.11,411.87 608.88,271.06 525.88,325.82 517.70,313.31 403.68,386.59 376.96,344.51 937.04,-14.74"/>
    <poly id="396314925" type="building.yes" color="255,230,230" fill="1" layer="-1.00" shape="554.24,356.41 567.17,348.30 564.77,344.51 550.69,350.80 554.24,356.41"/>
    <poly id="396314926" type="building.yes" color="255,230,230" fill="1" layer="-1.00" shape="542.92,350.42 537.11,354.24 545.82,367.37 551.62,363.55 542.92,350.42"/>