<?xml version="1.0" encoding="UTF-8"?>

<!-- generated on 11/27/16 14:12:19 by SUMO netconvert Version 0.28.0
<?xml version="1.0" encoding="UTF-8"?>

<configuration xmlns:xsi="http://www.w3.org/2001/XMLSchema-instance" xsi:noNamespaceSchemaLocation="http://sumo.dlr.de/xsd/netconvertConfiguration.xsd">

    <input>
        <type-files value="C:\Program%20Files%20(x86)\DLR\Sumo\data\typemap\osmNetconvert.typ.xml"/>
        <osm-files value="osm_bbox.osm.xml"/>
    </input>

    <output>
        <output-file value="C:\Users\johnldean\Sumo\2016-11-27-14-12-17\osm.net.xml"/>
        <output.street-names value="true"/>
        <output.original-names value="true"/>
    </output>

    <projection>
        <proj.utm value="true"/>
    </projection>

    <tls_building>
        <tls.discard-simple value="true"/>
        <tls.join value="true"/>
        <tls.guess-signals value="true"/>
    </tls_building>

    <ramp_guessing>
        <ramps.guess value="true"/>
    </ramp_guessing>

    <processing>
        <geometry.remove value="true"/>
        <roundabouts.guess value="true"/>
        <junctions.join value="true"/>
        <junctions.corner-detail value="5"/>
    </processing>

    <report>
        <verbose value="true"/>
    </report>

</configuration>
-->

<net version="0.27" junctionCornerDetail="5" xmlns:xsi="http://www.w3.org/2001/XMLSchema-instance" xsi:noNamespaceSchemaLocation="http://sumo.dlr.de/xsd/net_file.xsd">

    <location netOffset="-575559.27,-4141809.08" convBoundary="0.00,0.00,762.39,764.80" origBoundary="-122.146066,37.399598,-122.134432,37.426880" projParameter="+proj=utm +zone=10 +ellps=WGS84 +datum=WGS84 +units=m +no_defs"/>

    <type id="highway.bridleway" priority="1" numLanes="1" speed="2.78" allow="pedestrian" oneway="1" width="2.00"/>
    <type id="highway.bus_guideway" priority="1" numLanes="1" speed="8.33" allow="bus" oneway="1"/>
    <type id="highway.cycleway" priority="1" numLanes="1" speed="5.56" allow="bicycle" oneway="0" width="1.00"/>
    <type id="highway.footway" priority="1" numLanes="1" speed="2.78" allow="pedestrian" oneway="1" width="2.00"/>
    <type id="highway.ford" priority="1" numLanes="1" speed="2.78" allow="army" oneway="0"/>
    <type id="highway.living_street" priority="3" numLanes="1" speed="2.78" disallow="tram rail_urban rail rail_electric ship" oneway="0"/>
    <type id="highway.motorway" priority="13" numLanes="2" speed="44.44" allow="private emergency authority army vip passenger hov taxi bus coach delivery truck trailer motorcycle evehicle custom1 custom2" oneway="1"/>
    <type id="highway.motorway_link" priority="12" numLanes="1" speed="22.22" allow="private emergency authority army vip passenger hov taxi bus coach delivery truck trailer motorcycle evehicle custom1 custom2" oneway="1"/>
    <type id="highway.path" priority="1" numLanes="1" speed="2.78" allow="bicycle pedestrian" oneway="1" width="2.00"/>
    <type id="highway.pedestrian" priority="1" numLanes="1" speed="2.78" allow="pedestrian" oneway="1" width="2.00"/>
    <type id="highway.primary" priority="9" numLanes="2" speed="27.78" disallow="tram rail_urban rail rail_electric ship" oneway="0"/>
    <type id="highway.primary_link" priority="8" numLanes="1" speed="22.22" disallow="tram rail_urban rail rail_electric ship" oneway="0"/>
    <type id="highway.raceway" priority="14" numLanes="2" speed="83.33" allow="vip" oneway="0"/>
    <type id="highway.residential" priority="4" numLanes="1" speed="13.89" disallow="tram rail_urban rail rail_electric ship" oneway="0"/>
    <type id="highway.secondary" priority="7" numLanes="2" speed="27.78" disallow="tram rail_urban rail rail_electric ship" oneway="0"/>
    <type id="highway.secondary_link" priority="6" numLanes="1" speed="22.22" disallow="tram rail_urban rail rail_electric ship" oneway="0"/>
    <type id="highway.service" priority="2" numLanes="1" speed="5.56" allow="delivery bicycle pedestrian" oneway="0"/>
    <type id="highway.services" priority="1" numLanes="1" speed="8.33" disallow="tram rail_urban rail rail_electric ship" oneway="0"/>
    <type id="highway.stairs" priority="1" numLanes="1" speed="1.39" allow="pedestrian" oneway="1" width="2.00"/>
    <type id="highway.step" priority="1" numLanes="1" speed="1.39" allow="pedestrian" oneway="1" width="2.00"/>
    <type id="highway.steps" priority="1" numLanes="1" speed="1.39" allow="pedestrian" oneway="1" width="2.00"/>
    <type id="highway.tertiary" priority="6" numLanes="1" speed="22.22" disallow="tram rail_urban rail rail_electric ship" oneway="0"/>
    <type id="highway.tertiary_link" priority="5" numLanes="1" speed="22.22" disallow="tram rail_urban rail rail_electric ship" oneway="0"/>
    <type id="highway.track" priority="1" numLanes="1" speed="5.56" disallow="tram rail_urban rail rail_electric ship" oneway="0"/>
    <type id="highway.trunk" priority="11" numLanes="2" speed="27.78" disallow="tram rail_urban rail rail_electric bicycle pedestrian ship" oneway="0"/>
    <type id="highway.trunk_link" priority="10" numLanes="1" speed="22.22" disallow="tram rail_urban rail rail_electric bicycle pedestrian ship" oneway="0"/>
    <type id="highway.unclassified" priority="5" numLanes="1" speed="13.89" disallow="tram rail_urban rail rail_electric ship" oneway="0"/>
    <type id="highway.unsurfaced" priority="1" numLanes="1" speed="8.33" disallow="tram rail_urban rail rail_electric ship" oneway="0"/>
    <type id="railway.light_rail" priority="15" numLanes="1" speed="27.78" allow="rail_urban" oneway="1"/>
    <type id="railway.preserved" priority="15" numLanes="1" speed="27.78" allow="rail" oneway="1"/>
    <type id="railway.rail" priority="15" numLanes="1" speed="83.33" allow="rail rail_electric" oneway="1"/>
    <type id="railway.subway" priority="15" numLanes="1" speed="27.78" allow="rail_urban" oneway="1"/>
    <type id="railway.tram" priority="15" numLanes="1" speed="13.89" allow="tram" oneway="1"/>

    <edge id=":1088672125_0" function="internal">
        <lane id=":1088672125_0_0" index="0" allow="delivery bicycle pedestrian" speed="10.60" length="5.02" shape="632.61,146.90 633.65,146.00 634.14,144.98 634.09,143.85 633.49,142.61"/>
    </edge>
    <edge id=":1088672125_1" function="internal">
        <lane id=":1088672125_1_0" index="0" disallow="tram rail_urban rail rail_electric ship" speed="15.65" length="6.25" shape="632.61,146.90 637.81,143.52"/>
        <lane id=":1088672125_1_1" index="1" disallow="tram rail_urban rail rail_electric ship" speed="15.65" length="6.25" shape="634.40,149.68 639.62,146.28"/>
        <lane id=":1088672125_1_2" index="2" disallow="tram rail_urban rail rail_electric ship" speed="15.65" length="6.25" shape="636.19,152.45 641.43,149.03"/>
        <lane id=":1088672125_1_3" index="3" disallow="tram rail_urban rail rail_electric ship" speed="15.65" length="6.25" shape="637.98,155.22 643.24,151.79"/>
    </edge>
    <edge id=":1309636521_0" function="internal">
        <lane id=":1309636521_0_0" index="0" disallow="tram rail_urban rail rail_electric ship" speed="10.60" length="5.21" shape="616.78,155.12 617.79,156.20 618.88,156.74 620.04,156.74 621.27,156.19"/>
    </edge>
    <edge id=":1309636521_1" function="internal">
        <lane id=":1309636521_1_0" index="0" allow="delivery bicycle pedestrian" speed="5.56" length="4.82" shape="616.78,155.12 616.83,156.60 616.40,157.42 615.49,157.57 614.10,157.04"/>
    </edge>
    <edge id=":1309636521_2" function="internal">
        <lane id=":1309636521_2_0" index="0" allow="delivery bicycle pedestrian" speed="10.60" length="5.06" shape="613.28,161.35 614.34,160.44 614.82,159.41 614.75,158.28 614.10,157.04"/>
    </edge>
    <edge id=":1309636521_3" function="internal">
        <lane id=":1309636521_3_0" index="0" disallow="tram rail_urban rail rail_electric ship" speed="15.65" length="9.51" shape="613.28,161.35 621.27,156.19"/>
        <lane id=":1309636521_3_1" index="1" disallow="tram rail_urban rail rail_electric ship" speed="15.65" length="9.51" shape="615.08,164.12 623.06,158.96"/>
        <lane id=":1309636521_3_2" index="2" disallow="tram rail_urban rail rail_electric ship" speed="15.65" length="9.51" shape="616.87,166.90 624.85,161.74"/>
    </edge>
    <edge id=":1309636531_0" function="internal">
        <lane id=":1309636531_0_0" index="0" disallow="tram rail_urban rail rail_electric ship" speed="10.60" length="5.17" shape="588.23,173.61 589.22,174.69 590.29,175.23 591.44,175.22 592.68,174.67"/>
    </edge>
    <edge id=":1309636531_1" function="internal">
        <lane id=":1309636531_1_0" index="0" allow="delivery bicycle pedestrian" speed="5.56" length="4.82" shape="588.23,173.61 588.26,175.10 587.82,175.91 586.91,176.04 585.52,175.50"/>
    </edge>
    <edge id=":1309636531_2" function="internal">
        <lane id=":1309636531_2_0" index="0" allow="delivery bicycle pedestrian" speed="10.60" length="5.05" shape="584.66,179.80 585.72,178.89 586.21,177.87 586.15,176.74 585.52,175.50"/>
    </edge>
    <edge id=":1309636531_3" function="internal">
        <lane id=":1309636531_3_0" index="0" disallow="tram rail_urban rail rail_electric ship" speed="15.65" length="9.55" shape="584.66,179.80 592.68,174.67"/>
        <lane id=":1309636531_3_1" index="1" disallow="tram rail_urban rail rail_electric ship" speed="15.65" length="9.55" shape="586.42,182.59 594.47,177.44"/>
        <lane id=":1309636531_3_2" index="2" disallow="tram rail_urban rail rail_electric ship" speed="15.65" length="9.55" shape="588.19,185.37 596.26,180.21"/>
    </edge>
    <edge id=":1333758103_0" function="internal">
        <lane id=":1333758103_0_0" index="0" allow="delivery bicycle pedestrian" speed="5.56" length="5.08" shape="529.67,493.41 525.37,496.13"/>
    </edge>
    <edge id=":1333758103_1" function="internal">
        <lane id=":1333758103_1_0" index="0" allow="delivery bicycle pedestrian" speed="5.56" length="2.41" shape="529.67,493.41 528.18,493.37 527.39,492.90"/>
    </edge>
    <edge id=":1333758103_4" function="internal">
        <lane id=":1333758103_4_0" index="0" speed="5.56" length="2.41" shape="527.39,492.90 527.30,491.98 527.90,490.62"/>
    </edge>
    <edge id=":1333758103_2" function="internal">
        <lane id=":1333758103_2_0" index="0" allow="delivery bicycle pedestrian" speed="5.56" length="5.08" shape="523.61,493.34 527.90,490.62"/>
    </edge>
    <edge id=":1333758103_3" function="internal">
        <lane id=":1333758103_3_0" index="0" allow="delivery bicycle pedestrian" speed="5.56" length="2.41" shape="523.61,493.34 525.09,493.37 525.88,493.85"/>
    </edge>
    <edge id=":1333758103_5" function="internal">
        <lane id=":1333758103_5_0" index="0" speed="5.56" length="2.41" shape="525.88,493.85 525.97,494.77 525.37,496.13"/>
    </edge>
    <edge id=":1333758123_0" function="internal">
        <lane id=":1333758123_0_0" index="0" allow="delivery bicycle pedestrian" speed="5.56" length="8.90" shape="632.84,480.60 631.72,479.49 629.97,478.72 627.60,478.29 624.59,478.20"/>
    </edge>
    <edge id=":1333758123_1" function="internal">
        <lane id=":1333758123_1_0" index="0" allow="delivery bicycle pedestrian" speed="5.56" length="11.02" shape="632.84,480.60 626.95,471.28"/>
    </edge>
    <edge id=":1333758123_2" function="internal">
        <lane id=":1333758123_2_0" index="0" allow="delivery bicycle pedestrian" speed="5.56" length="4.82" shape="632.84,480.60 632.88,479.11 633.35,478.32 634.27,478.23 635.63,478.83"/>
    </edge>
    <edge id=":1333758123_3" function="internal">
        <lane id=":1333758123_3_0" index="0" allow="delivery bicycle pedestrian" speed="5.56" length="11.02" shape="629.74,469.51 635.63,478.83"/>
    </edge>
    <edge id=":1333758123_4" function="internal">
        <lane id=":1333758123_4_0" index="0" allow="delivery bicycle pedestrian" speed="5.56" length="13.88" shape="629.74,469.51 631.42,473.22 631.12,475.90 628.84,477.56 624.59,478.20"/>
    </edge>
    <edge id=":1333758123_5" function="internal">
        <lane id=":1333758123_5_0" index="0" allow="delivery bicycle pedestrian" speed="5.56" length="4.82" shape="629.74,469.51 629.71,471.00 629.23,471.79 628.31,471.88 626.95,471.28"/>
    </edge>
    <edge id=":1333758123_6" function="internal">
        <lane id=":1333758123_6_0" index="0" allow="delivery bicycle pedestrian" speed="5.56" length="5.79" shape="624.80,474.90 626.58,474.63 627.53,473.94 627.65,472.82 626.95,471.28"/>
    </edge>
    <edge id=":1333758123_7" function="internal">
        <lane id=":1333758123_7_0" index="0" allow="delivery bicycle pedestrian" speed="5.56" length="12.01" shape="624.80,474.90 628.56,475.07 631.62,475.78 633.97,477.04 635.63,478.83"/>
    </edge>
    <edge id=":1333758123_8" function="internal">
        <lane id=":1333758123_8_0" index="0" allow="delivery bicycle pedestrian" speed="5.56" length="4.83" shape="624.80,474.90 625.99,475.80 626.35,476.66 625.89,477.46 624.59,478.20"/>
    </edge>
    <edge id=":1333758141_0" function="internal">
        <lane id=":1333758141_0_0" index="0" allow="delivery bicycle pedestrian" speed="5.56" length="5.20" shape="563.80,497.09 562.86,495.96 561.81,495.39 560.65,495.38 559.39,495.93"/>
    </edge>
    <edge id=":1333758141_1" function="internal">
        <lane id=":1333758141_1_0" index="0" allow="delivery bicycle pedestrian" speed="5.56" length="9.74" shape="563.80,497.09 558.59,488.86"/>
    </edge>
    <edge id=":1333758141_2" function="internal">
        <lane id=":1333758141_2_0" index="0" allow="delivery bicycle pedestrian" speed="5.56" length="10.69" shape="563.80,497.09 562.59,494.39 562.57,492.01 563.76,489.93 566.14,488.18"/>
    </edge>
    <edge id=":1333758141_3" function="internal">
        <lane id=":1333758141_3_0" index="0" allow="delivery bicycle pedestrian" speed="5.56" length="4.82" shape="563.80,497.09 563.84,495.61 564.31,494.82 565.23,494.72 566.59,495.32"/>
    </edge>
    <edge id=":1333758141_4" function="internal">
        <lane id=":1333758141_4_0" index="0" allow="delivery bicycle pedestrian" speed="5.56" length="5.09" shape="567.70,491.08 566.57,491.92 566.00,492.90 566.01,494.04 566.59,495.32"/>
    </edge>
    <edge id=":1333758141_5" function="internal">
        <lane id=":1333758141_5_0" index="0" allow="delivery bicycle pedestrian" speed="5.56" length="9.62" shape="567.70,491.08 559.39,495.93"/>
    </edge>
    <edge id=":1333758141_6" function="internal">
        <lane id=":1333758141_6_0" index="0" allow="delivery bicycle pedestrian" speed="5.56" length="10.53" shape="567.70,491.08 564.97,492.10 562.55,492.07 560.42,490.99 558.59,488.86"/>
    </edge>
    <edge id=":1333758141_7" function="internal">
        <lane id=":1333758141_7_0" index="0" allow="delivery bicycle pedestrian" speed="5.56" length="4.82" shape="567.70,491.08 566.22,490.94 565.47,490.41 565.44,489.49 566.14,488.18"/>
    </edge>
    <edge id=":1333758141_8" function="internal">
        <lane id=":1333758141_8_0" index="0" allow="delivery bicycle pedestrian" speed="5.56" length="5.48" shape="561.38,487.10 562.32,488.18 563.43,488.72 564.70,488.72 566.14,488.18"/>
    </edge>
    <edge id=":1333758141_9" function="internal">
        <lane id=":1333758141_9_0" index="0" allow="delivery bicycle pedestrian" speed="5.56" length="9.74" shape="561.38,487.10 566.59,495.32"/>
    </edge>
    <edge id=":1333758141_10" function="internal">
        <lane id=":1333758141_10_0" index="0" allow="delivery bicycle pedestrian" speed="5.56" length="10.32" shape="561.38,487.10 562.54,489.68 562.59,492.01 561.54,494.09 559.39,495.93"/>
    </edge>
    <edge id=":1333758141_11" function="internal">
        <lane id=":1333758141_11_0" index="0" allow="delivery bicycle pedestrian" speed="5.56" length="4.82" shape="561.38,487.10 561.34,488.59 560.87,489.38 559.95,489.47 558.59,488.86"/>
    </edge>
    <edge id=":1333758141_12" function="internal">
        <lane id=":1333758141_12_0" index="0" allow="delivery bicycle pedestrian" speed="5.56" length="5.00" shape="557.63,493.14 558.67,492.25 559.18,491.24 559.15,490.11 558.59,488.86"/>
    </edge>
    <edge id=":1333758141_13" function="internal">
        <lane id=":1333758141_13_0" index="0" allow="delivery bicycle pedestrian" speed="5.56" length="9.86" shape="557.63,493.14 566.14,488.18"/>
    </edge>
    <edge id=":1333758141_14" function="internal">
        <lane id=":1333758141_14_0" index="0" allow="delivery bicycle pedestrian" speed="5.56" length="10.52" shape="557.63,493.14 560.21,491.99 562.57,491.97 564.69,493.08 566.59,495.32"/>
    </edge>
    <edge id=":1333758141_15" function="internal">
        <lane id=":1333758141_15_0" index="0" allow="delivery bicycle pedestrian" speed="5.56" length="4.82" shape="557.63,493.14 559.11,493.18 559.90,493.65 560.00,494.57 559.39,495.93"/>
    </edge>
    <edge id=":1333758155_0" function="internal">
        <lane id=":1333758155_0_0" index="0" allow="delivery bicycle pedestrian" speed="5.56" length="4.82" shape="671.09,532.81 671.14,534.30 670.72,535.12 669.81,535.27 668.41,534.75"/>
    </edge>
    <edge id=":1333758168_0" function="internal">
        <lane id=":1333758168_0_0" index="0" allow="delivery bicycle pedestrian" speed="5.56" length="9.52" shape="583.29,527.84 578.20,519.80"/>
    </edge>
    <edge id=":1333758168_1" function="internal">
        <lane id=":1333758168_1_0" index="0" allow="delivery bicycle pedestrian" speed="5.56" length="10.75" shape="583.29,527.84 582.07,525.12 582.07,522.72 583.27,520.66 585.69,518.91"/>
    </edge>
    <edge id=":1333758168_2" function="internal">
        <lane id=":1333758168_2_0" index="0" allow="delivery bicycle pedestrian" speed="5.56" length="4.82" shape="583.29,527.84 583.33,526.35 583.80,525.56 584.72,525.47 586.08,526.07"/>
    </edge>
    <edge id=":1333758168_3" function="internal">
        <lane id=":1333758168_3_0" index="0" allow="delivery bicycle pedestrian" speed="5.56" length="5.10" shape="587.22,521.84 586.07,522.66 585.50,523.65 585.50,524.78 586.08,526.07"/>
    </edge>
    <edge id=":1333758168_4" function="internal">
        <lane id=":1333758168_4_0" index="0" allow="delivery bicycle pedestrian" speed="5.56" length="10.36" shape="587.22,521.84 584.48,522.85 582.06,522.84 579.97,521.83 578.20,519.80"/>
    </edge>
    <edge id=":1333758168_5" function="internal">
        <lane id=":1333758168_5_0" index="0" allow="delivery bicycle pedestrian" speed="5.56" length="4.82" shape="587.22,521.84 585.74,521.68 584.99,521.14 584.98,520.22 585.69,518.91"/>
    </edge>
    <edge id=":1333758168_6" function="internal">
        <lane id=":1333758168_6_0" index="0" allow="delivery bicycle pedestrian" speed="5.56" length="5.36" shape="580.98,518.03 581.87,519.03 582.96,519.51 584.23,519.47 585.69,518.91"/>
    </edge>
    <edge id=":1333758168_7" function="internal">
        <lane id=":1333758168_7_0" index="0" allow="delivery bicycle pedestrian" speed="5.56" length="9.52" shape="580.98,518.03 586.08,526.07"/>
    </edge>
    <edge id=":1333758168_8" function="internal">
        <lane id=":1333758168_8_0" index="0" allow="delivery bicycle pedestrian" speed="5.56" length="4.82" shape="580.98,518.03 580.95,519.52 580.47,520.31 579.56,520.40 578.20,519.80"/>
    </edge>
    <edge id=":1333758181_0" function="internal">
        <lane id=":1333758181_0_0" index="0" allow="delivery bicycle pedestrian" speed="5.56" length="5.41" shape="611.90,515.43 606.53,516.04"/>
    </edge>
    <edge id=":1333758181_1" function="internal">
        <lane id=":1333758181_1_0" index="0" allow="delivery bicycle pedestrian" speed="5.56" length="2.51" shape="611.90,515.43 610.59,514.73 610.10,513.95 610.14,513.85"/>
    </edge>
    <edge id=":1333758181_4" function="internal">
        <lane id=":1333758181_4_0" index="0" speed="5.56" length="2.31" shape="610.14,513.85 610.43,513.09 611.58,512.14"/>
    </edge>
    <edge id=":1333758181_2" function="internal">
        <lane id=":1333758181_2_0" index="0" allow="delivery bicycle pedestrian" speed="5.56" length="5.42" shape="606.19,512.73 607.77,512.41 608.86,512.30 609.97,512.26 611.58,512.14"/>
    </edge>
    <edge id=":1333758181_3" function="internal">
        <lane id=":1333758181_3_0" index="0" allow="delivery bicycle pedestrian" speed="5.56" length="2.43" shape="606.19,512.73 607.52,513.43 608.02,514.22"/>
    </edge>
    <edge id=":1333758181_5" function="internal">
        <lane id=":1333758181_5_0" index="0" speed="5.56" length="2.43" shape="608.02,514.22 607.69,515.09 606.53,516.04"/>
    </edge>
    <edge id=":1333758187_0" function="internal">
        <lane id=":1333758187_0_0" index="0" allow="delivery bicycle pedestrian" speed="5.56" length="5.24" shape="573.20,511.91 572.24,510.76 571.18,510.19 570.02,510.21 568.77,510.80"/>
    </edge>
    <edge id=":1333758187_1" function="internal">
        <lane id=":1333758187_1_0" index="0" allow="delivery bicycle pedestrian" speed="5.56" length="9.76" shape="573.20,511.91 567.97,503.67"/>
    </edge>
    <edge id=":1333758187_2" function="internal">
        <lane id=":1333758187_2_0" index="0" allow="delivery bicycle pedestrian" speed="5.56" length="10.86" shape="573.20,511.91 571.96,509.15 571.96,506.74 573.21,504.68 575.70,502.96"/>
    </edge>
    <edge id=":1333758187_3" function="internal">
        <lane id=":1333758187_3_0" index="0" allow="delivery bicycle pedestrian" speed="5.56" length="4.82" shape="573.20,511.91 573.23,510.42 573.71,509.63 574.62,509.54 575.98,510.14"/>
    </edge>
    <edge id=":1333758187_4" function="internal">
        <lane id=":1333758187_4_0" index="0" allow="delivery bicycle pedestrian" speed="5.56" length="5.13" shape="577.16,505.92 575.99,506.73 575.40,507.70 575.40,508.84 575.98,510.14"/>
    </edge>
    <edge id=":1333758187_5" function="internal">
        <lane id=":1333758187_5_0" index="0" allow="delivery bicycle pedestrian" speed="5.56" length="9.71" shape="577.16,505.92 568.77,510.80"/>
    </edge>
    <edge id=":1333758187_6" function="internal">
        <lane id=":1333758187_6_0" index="0" allow="delivery bicycle pedestrian" speed="5.56" length="10.56" shape="577.16,505.92 574.38,506.88 571.91,506.82 569.78,505.75 567.97,503.67"/>
    </edge>
    <edge id=":1333758187_7" function="internal">
        <lane id=":1333758187_7_0" index="0" allow="delivery bicycle pedestrian" speed="5.56" length="4.82" shape="577.16,505.92 575.69,505.73 574.95,505.17 574.96,504.25 575.70,502.96"/>
    </edge>
    <edge id=":1333758187_8" function="internal">
        <lane id=":1333758187_8_0" index="0" allow="delivery bicycle pedestrian" speed="5.56" length="5.63" shape="570.76,501.90 571.70,502.97 572.84,503.50 574.17,503.50 575.70,502.96"/>
    </edge>
    <edge id=":1333758187_9" function="internal">
        <lane id=":1333758187_9_0" index="0" allow="delivery bicycle pedestrian" speed="5.56" length="9.76" shape="570.76,501.90 575.98,510.14"/>
    </edge>
    <edge id=":1333758187_10" function="internal">
        <lane id=":1333758187_10_0" index="0" allow="delivery bicycle pedestrian" speed="5.56" length="10.33" shape="570.76,501.90 571.89,504.44 571.93,506.76 570.89,508.89 568.77,510.80"/>
    </edge>
    <edge id=":1333758187_11" function="internal">
        <lane id=":1333758187_11_0" index="0" allow="delivery bicycle pedestrian" speed="5.56" length="4.82" shape="570.76,501.90 570.72,503.39 570.25,504.18 569.33,504.27 567.97,503.67"/>
    </edge>
    <edge id=":1333758187_12" function="internal">
        <lane id=":1333758187_12_0" index="0" allow="delivery bicycle pedestrian" speed="5.56" length="5.13" shape="566.91,508.07 567.99,507.11 568.52,506.06 568.52,504.91 567.97,503.67"/>
    </edge>
    <edge id=":1333758187_13" function="internal">
        <lane id=":1333758187_13_0" index="0" allow="delivery bicycle pedestrian" speed="5.56" length="10.16" shape="566.91,508.07 575.70,502.96"/>
    </edge>
    <edge id=":1333758187_14" function="internal">
        <lane id=":1333758187_14_0" index="0" allow="delivery bicycle pedestrian" speed="5.56" length="10.68" shape="566.91,508.07 569.52,506.82 571.89,506.75 574.05,507.86 575.98,510.14"/>
    </edge>
    <edge id=":1333758187_15" function="internal">
        <lane id=":1333758187_15_0" index="0" allow="delivery bicycle pedestrian" speed="5.56" length="4.82" shape="566.91,508.07 568.40,508.06 569.21,508.51 569.33,509.42 568.77,510.80"/>
    </edge>
    <edge id=":1333758195_0" function="internal">
        <lane id=":1333758195_0_0" index="0" allow="delivery bicycle pedestrian" speed="5.56" length="4.82" shape="612.90,568.38 612.86,569.87 612.39,570.66 611.47,570.75 610.11,570.15"/>
    </edge>
    <edge id=":1333758219_0" function="internal">
        <lane id=":1333758219_0_0" index="0" allow="delivery bicycle pedestrian" speed="5.56" length="5.04" shape="554.06,481.72 553.16,480.66 552.15,480.14 551.01,480.15 549.76,480.71"/>
    </edge>
    <edge id=":1333758219_1" function="internal">
        <lane id=":1333758219_1_0" index="0" allow="delivery bicycle pedestrian" speed="5.56" length="10.39" shape="554.06,481.72 552.89,479.11 552.85,476.77 553.92,474.69 556.12,472.87"/>
    </edge>
    <edge id=":1333758219_2" function="internal">
        <lane id=":1333758219_2_0" index="0" allow="delivery bicycle pedestrian" speed="5.56" length="4.82" shape="554.06,481.72 554.10,480.23 554.58,479.44 555.49,479.35 556.85,479.95"/>
    </edge>
    <edge id=":1333758219_3" function="internal">
        <lane id=":1333758219_3_0" index="0" allow="delivery bicycle pedestrian" speed="5.56" length="5.02" shape="557.84,475.68 556.78,476.56 556.26,477.56 556.29,478.70 556.85,479.95"/>
    </edge>
    <edge id=":1333758219_4" function="internal">
        <lane id=":1333758219_4_0" index="0" allow="delivery bicycle pedestrian" speed="5.56" length="9.52" shape="557.84,475.68 549.76,480.71"/>
    </edge>
    <edge id=":1333758219_5" function="internal">
        <lane id=":1333758219_5_0" index="0" allow="delivery bicycle pedestrian" speed="5.56" length="4.82" shape="557.84,475.68 556.36,475.62 555.57,475.14 555.50,474.22 556.12,472.87"/>
    </edge>
    <edge id=":1333758219_6" function="internal">
        <lane id=":1333758219_6_0" index="0" allow="delivery bicycle pedestrian" speed="5.56" length="9.57" shape="548.00,477.92 556.12,472.87"/>
    </edge>
    <edge id=":1333758219_7" function="internal">
        <lane id=":1333758219_7_0" index="0" allow="delivery bicycle pedestrian" speed="5.56" length="10.36" shape="548.00,477.92 550.58,476.77 552.91,476.72 555.01,477.78 556.85,479.95"/>
    </edge>
    <edge id=":1333758219_8" function="internal">
        <lane id=":1333758219_8_0" index="0" allow="delivery bicycle pedestrian" speed="5.56" length="4.82" shape="548.00,477.92 549.48,477.96 550.27,478.44 550.37,479.35 549.76,480.71"/>
    </edge>
    <edge id=":1333758263_0" function="internal">
        <lane id=":1333758263_0_0" index="0" allow="delivery bicycle pedestrian" speed="5.56" length="5.06" shape="597.87,451.14 593.55,453.79"/>
    </edge>
    <edge id=":1333758263_1" function="internal">
        <lane id=":1333758263_1_0" index="0" allow="delivery bicycle pedestrian" speed="5.56" length="2.41" shape="597.87,451.14 596.38,451.08 595.60,450.60"/>
    </edge>
    <edge id=":1333758263_4" function="internal">
        <lane id=":1333758263_4_0" index="0" speed="5.56" length="2.41" shape="595.60,450.60 595.52,449.68 596.15,448.33"/>
    </edge>
    <edge id=":1333758263_2" function="internal">
        <lane id=":1333758263_2_0" index="0" allow="delivery bicycle pedestrian" speed="5.56" length="5.06" shape="591.83,450.97 596.15,448.33"/>
    </edge>
    <edge id=":1333758263_3" function="internal">
        <lane id=":1333758263_3_0" index="0" allow="delivery bicycle pedestrian" speed="5.56" length="2.41" shape="591.83,450.97 593.32,451.03 594.10,451.52"/>
    </edge>
    <edge id=":1333758263_5" function="internal">
        <lane id=":1333758263_5_0" index="0" speed="5.56" length="2.41" shape="594.10,451.52 594.18,452.44 593.55,453.79"/>
    </edge>
    <edge id=":1333758270_0" function="internal">
        <lane id=":1333758270_0_0" index="0" allow="delivery bicycle pedestrian" speed="5.56" length="5.07" shape="539.50,508.56 535.22,511.27"/>
    </edge>
    <edge id=":1333758270_1" function="internal">
        <lane id=":1333758270_1_0" index="0" allow="delivery bicycle pedestrian" speed="5.56" length="2.41" shape="539.50,508.56 538.02,508.52 537.23,508.05"/>
    </edge>
    <edge id=":1333758270_4" function="internal">
        <lane id=":1333758270_4_0" index="0" speed="5.56" length="2.41" shape="537.23,508.05 537.13,507.13 537.73,505.77"/>
    </edge>
    <edge id=":1333758270_2" function="internal">
        <lane id=":1333758270_2_0" index="0" allow="delivery bicycle pedestrian" speed="5.56" length="5.07" shape="533.46,508.49 537.73,505.77"/>
    </edge>
    <edge id=":1333758270_3" function="internal">
        <lane id=":1333758270_3_0" index="0" allow="delivery bicycle pedestrian" speed="5.56" length="2.41" shape="533.46,508.49 534.94,508.52 535.73,508.99"/>
    </edge>
    <edge id=":1333758270_5" function="internal">
        <lane id=":1333758270_5_0" index="0" speed="5.56" length="2.41" shape="535.73,508.99 535.83,509.91 535.22,511.27"/>
    </edge>
    <edge id=":1333758313_0" function="internal">
        <lane id=":1333758313_0_0" index="0" allow="delivery bicycle pedestrian" speed="5.56" length="5.12" shape="608.82,497.13 603.76,497.87"/>
    </edge>
    <edge id=":1333758313_1" function="internal">
        <lane id=":1333758313_1_0" index="0" allow="delivery bicycle pedestrian" speed="5.56" length="2.41" shape="608.82,497.13 607.48,496.49 606.95,495.73"/>
    </edge>
    <edge id=":1333758313_4" function="internal">
        <lane id=":1333758313_4_0" index="0" speed="5.56" length="2.41" shape="606.95,495.73 607.25,494.86 608.35,493.86"/>
    </edge>
    <edge id=":1333758313_2" function="internal">