<?xml version="1.0"?>
<!-- generated on 2016-11-27 14:12:20.310000 by $Id: route2trips.py 20433 2016-04-13 08:00:14Z behrisch $ -->
<trips>
    <vType id="passenger" vClass="passenger"/>
    <trip id="veh0" depart="0.00" departLane="best" from="449688279" to="-27459776#0" type="passenger"/>
    <trip id="veh1" depart="3.41" departLane="best" from="52014943#0" to="385247935#1" type="passenger"/>
    <trip id="veh2" depart="6.82" departLane="best" from="385247937#0" to="-27459776#0" type="passenger"/>
    <trip id="veh3" depart="10.24" departLane="best" from="-8950269" to="-52014943#0" type="passenger"/>
    <trip id="veh4" depart="13.65" departLane="best" from="27422561#0" to="385245842#1" type="passenger"/>
    <trip id="veh5" depart="17.06" departLane="best" from="8929734#0" to="-27422562#3" type="passenger"/>
    <trip id="veh6" depart="20.47" departLane="best" from="8929734#0" to="385247935#1" type="passenger"/>
    <trip id="veh8" depart="27.30" departLane="best" from="-8950269" to="-27459776#0" type="passenger"/>
    <trip id="veh9" depart="30.71" departLane="best" from="8929734#0" to="385245842#1" type="passenger"/>
    <trip id="veh10" depart="34.12" departLane="best" from="8929734#0" to="385247935#1" type="passenger"/>
    <trip id="veh12" depart="40.94" departLane="best" from="385247937#0" to="385245842#1" type="passenger"/>
    <trip id="veh13" depart="44.36" departLane="best" from="8929734#0" to="385245842#1" type="passenger"/>
    <trip id="veh14" depart="47.77" departLane="best" from="8929734#0" to="385245842#1" type="passenger"/>
    <trip id="veh15" depart="51.18" departLane="best" from="-8950269" to="-8929734#0" type="passenger"/>
    <trip id="veh16" depart="54.59" departLane="best" from="-8950269" to="-8929734#0" type="passenger"/>
    <trip id="veh17" depart="58.00" departLane="best" from="449688279" to="-8937421#0" type="passenger"/>
    <trip id="veh18" depart="61.42" departLane="best" from="385247937#0" to="-52014943#0" type="passenger"/>
    <trip id="veh20" depart="68.24" departLane="best" from="27422561#0" to="385247935#1" type="passenger"/>
    <trip id="veh21" depart="71.65" departLane="best" from="8937421#0" to="385245842#1" type="passenger"/>
    <trip id="veh22" depart="75.06" departLane="best" from="385248626#0" to="385247935#1" type="passenger"/>
    <trip id="veh23" depart="78.48" departLane="best" from="8929734#0" to="385248627" type="passenger"/>
    <trip id="veh25" depart="85.30" departLane="best" from="449688279" to="-8937421#0" type="passenger"/>
    <trip id="veh26" depart="88.71" departLane="best" from="385248626#0" to="-8929734#0" type="passenger"/>
    <trip id="veh27" depart="92.12" departLane="best" from="385247937#0" to="-8929734#0" type="passenger"/>
    <trip id="veh28" depart="95.54" departLane="best" from="-8950269" to="-27459776#0" type="passenger"/>
    <trip id="veh29" depart="98.95" departLane="best" from="-8950269" to="385245842#1" type="passenger"/>
    <trip id="veh30" depart="102.36" departLane="best" from="8937421#0" to="385248627" type="passenger"/>
    <trip id="veh31" depart="105.77" departLane="best" from="-52014943#1" to="385247935#1" type="passenger"/>
    <trip id="veh32" depart="109.18" departLane="best" from="449688279" to="27422563#3" type="passenger"/>
    <trip id="veh33" depart="112.59" departLane="best" from="27459776#0" to="385245842#1" type="passenger"/>
    <trip id="veh34" depart="116.01" departLane="best" from="8937421#0" to="396835328" type="passenger"/>
    <trip id="veh35" depart="119.42" departLane="best" from="27459776#0" to="385245842#1" type="passenger"/>
    <trip id="veh36" depart="122.83" departLane="best" from="449688279" to="-52014943#0" type="passenger"/>
    <trip id="veh37" depart="126.24" departLane="best" from="52014943#0" to="27422563#3" type="passenger"/>
    <trip id="veh38" depart="129.65" departLane="best" from="8929734#0" to="385248627" type="passenger"/>
    <trip id="veh40" depart="136.48" departLane="best" from="-8950269" to="27422563#3" type="passenger"/>
    <trip id="veh41" depart="139.89" departLane="best" from="385248626#0" to="385240398" type="passenger"/>
    <trip id="veh42" depart="143.30" departLane="best" from="27459776#0" to="417274299#0" type="passenger"/>
    <trip id="veh43" depart="146.71" departLane="best" from="385247937#0" to="-52014943#1" type="passenger"/>
    <trip id="veh44" depart="150.13" departLane="best" from="385248626#0" to="385247935#1" type="passenger"/>
    <trip id="veh45" depart="153.54" departLane="best" from="8937421#0" to="385245842#1" type="passenger"/>
    <trip id="veh46" depart="156.95" departLane="best" from="385247937#0" to="27422563#3" type="passenger"/>
    <trip id="veh47" depart="160.36" departLane="best" from="200516344#1" to="-8929734#0" type="passenger"/>
    <trip id="veh49" depart="167.19" departLane="best" from="27422562#2" to="-8929734#0" type="passenger"/>
    <trip id="veh50" depart="170.60" departLane="best" from="-8950269" to="385245842#1" type="passenger"/>
    <trip id="veh51" depart="174.01" departLane="best" from="27459776#0" to="385247935#1" type="passenger"/>
    <trip id="veh52" depart="177.42" departLane="best" from="27422561#0" to="-52014943#0" type="passenger"/>
    <trip id="veh53" depart="180.83" departLane="best" from="8937421#0" to="385245842#1" type="passenger"/>
    <trip id="veh54" depart="184.25" departLane="best" from="8929734#0" to="-52014943#0" type="passenger"/>
    <trip id="veh55" depart="187.66" departLane="best" from="385247937#0" to="27422563#3" type="passenger"/>
    <trip id="veh56" depart="191.07" departLane="best" from="52014943#0" to="385247935#1" type="passenger"/>
    <trip id="veh57" depart="194.48" departLane="best" from="8937421#0" to="-27459776#0" type="passenger"/>
    <trip id="veh58" depart="197.89" departLane="best" from="385247937#0" to="-8937421#0" type="passenger"/>
    <trip id="veh59" depart="201.31" departLane="best" from="385247937#0" to="-8929734#0" type="passenger"/>
    <trip id="veh61" depart="208.13" departLane="best" from="385247937#0" to="385248627" type="passenger"/>
    <trip id="veh62" depart="211.54" departLane="best" from="385248626#0" to="-27459776#0" type="passenger"/>
    <trip id="veh63" depart="214.95" departLane="best" from="8954995" to="385248627" type="passenger"/>
    <trip id="veh64" depart="218.37" departLane="best" from="8929734#0" to="-52014943#0" type="passenger"/>
    <trip id="veh65" depart="221.78" departLane="best" from="385248626#0" to="-52014943#2" type="passenger"/>
    <trip id="veh66" depart="225.19" departLane="best" from="385247937#0" to="-27459776#0" type="passenger"/>
    <trip id="veh67" depart="228.60" departLane="best" from="27459776#0" to="385248627" type="passenger"/>
    <trip id="veh68" depart="232.01" departLane="best" from="385247937#0" to="200516344#2" type="passenger"/>
    <trip id="veh69" depart="235.43" departLane="best" from="385248626#0" to="385247935#1" type="passenger"/>
    <trip id="veh70" depart="238.84" departLane="best" from="8937421#0" to="385245842#1" type="passenger"/>
    <trip id="veh71" depart="242.25" departLane="best" from="385248626#0" to="385247935#1" type="passenger"/>
    <trip id="veh72" depart="245.66" departLane="best" from="-8950269" to="385245842#1" type="passenger"/>
    <trip id="veh74" depart="252.49" departLane="best" from="-8950269" to="-52014943#0" type="passenger"/>
    <trip id="veh75" depart="255.90" departLane="best" from="449688279" to="385247935#1" type="passenger"/>
    <trip id="veh76" depart="259.31" departLane="best" from="27422563#1" to="-52014943#0" type="passenger"/>
    <trip id="veh77" depart="262.72" departLane="best" from="385247937#0" to="385245842#1" type="passenger"/>
    <trip id="veh79" depart="269.55" departLane="best" from="27422561#0" to="385247935#1" type="passenger"/>
    <trip id="veh80" depart="272.96" departLane="best" from="27459776#0" to="-8937421#0" type="passenger"/>
    <trip id="veh81" depart="276.37" departLane="best" from="449688279" to="-8929734#0" type="passenger"/>
    <trip id="veh82" depart="279.78" departLane="best" from="27459776#0" to="385247935#1" type="passenger"/>
    <trip id="veh83" depart="283.19" departLane="best" from="-8950269" to="27422563#3" type="passenger"/>
    <trip id="veh84" depart="286.61" departLane="best" from="-8950269" to="-52014943#2" type="passenger"/>
    <trip id="veh86" depart="293.43" departLane="best" from="8929734#0" to="417918236" type="passenger"/>
    <trip id="veh87" depart="296.84" departLane="best" from="385247937#0" to="-52014943#0" type="passenger"/>
    <trip id="veh88" depart="300.25" departLane="best" from="8929734#0" to="385247935#1" type="passenger"/>
    <trip id="veh90" depart="307.08" departLane="best" from="449688279" to="-27422562#3" type="passenger"/>
    <trip id="veh92" depart="313.90" departLane="best" from="27422561#0" to="-52014943#0" type="passenger"/>
    <trip id="veh93" depart="317.31" departLane="best" from="-8950269" to="385245842#1" type="passenger"/>
    <trip id="veh94" depart="320.72" departLane="best" from="27459776#0" to="385245842#1" type="passenger"/>
    <trip id="veh95" depart="324.14" departLane="best" from="449688279" to="-8929734#0" type="passenger"/>
    <trip id="veh97" depart="330.96" departLane="best" from="385247937#0" to="-8929734#0" type="passenger"/>
    <trip id="veh98" depart="334.37" departLane="best" from="-27422562#1" to="385248627" type="passenger"/>
    <trip id="veh99" depart="337.78" departLane="best" from="449688279" to="-8929734#0" type="passenger"/>
    <trip id="veh100" depart="341.20" departLane="best" from="52014943#0" to="385245842#1" type="passenger"/>
    <trip id="veh101" depart="344.61" departLane="best" from="385247937#0" to="-27459776#0" type="passenger"/>
    <trip id="veh103" depart="351.43" departLane="best" from="8929734#0" to="385245842#1" type="passenger"/>
    <trip id="veh104" depart="354.84" departLane="best" from="27422561#0" to="-52014943#0" type="passenger"/>
    <trip id="veh106" depart="361.67" departLane="best" from="8929734#0" to="385248627" type="passenger"/>
    <trip id="veh107" depart="365.08" departLane="best" from="8937421#0" to="-52014943#1" type="passenger"/>
    <trip id="veh108" depart="368.49" departLane="best" from="52014943#0" to="417918238#1" type="passenger"/>
    <trip id="veh109" depart="371.90" departLane="best" from="385247937#0" to="385245842#1" type="passenger"/>
    <trip id="veh114" depart="388.96" departLane="best" from="8929734#0" to="385248627" type="passenger"/>
    <trip id="veh115" depart="392.38" departLane="best" from="8929734#0" to="385248627" type="passenger"/>
    <trip id="veh116" depart="395.79" departLane="best" from="27422561#0" to="385248627" type="passenger"/>
    <trip id="veh117" depart="399.20" departLane="best" from="385247937#0" to="-8929734#0" type="passenger"/>
    <trip id="veh118" depart="402.61" departLane="best" from="-8950269" to="-52014943#0" type="passenger"/>
    <trip id="veh119" depart="406.02" departLane="best" from="27459776#0" to="385248627" type="passenger"/>
    <trip id="veh120" depart="409.44" departLane="best" from="449688279" to="-8937421#0" type="passenger"/>
    <trip id="veh121" depart="412.85" departLane="best" from="8937421#0" to="-52014943#0" type="passenger"/>
    <trip id="veh122" depart="416.26" departLane="best" from="8937421#0" to="-52014943#0" type="passenger"/>
    <trip id="veh123" depart="419.67" departLane="best" from="52014943#0" to="-8929734#0" type="passenger"/>
    <trip id="veh124" depart="423.08" departLane="best" from="449688279" to="27422563#3" type="passenger"/>
    <trip id="veh125" depart="426.50" departLane="best" from="385247937#0" to="385245842#1" type="passenger"/>
    <trip id="veh126" depart="429.91" departLane="best" from="27459776#0" to="385247935#1" type="passenger"/>
    <trip id="veh127" depart="433.32" departLane="best" from="385248626#0" to="385247935#1" type="passenger"/>
    <trip id="veh128" depart="436.73" departLane="best" from="52014943#0" to="385247935#1" type="passenger"/>
    <trip id="veh129" depart="440.14" departLane="best" from="385247937#0" to="-27459776#0" type="passenger"/>
    <trip id="veh130" depart="443.56" departLane="best" from="449688279" to="-8937421#0" type="passenger"/>
    <trip id="veh131" depart="446.97" departLane="best" from="27459776#0" to="385248627" type="passenger"/>
    <trip id="veh132" depart="450.38" departLane="best" from="52014943#0" to="-8929734#0" type="passenger"/>
    <trip id="veh133" depart="453.79" departLane="best" from="27459776#0" to="-8937421#0" type="passenger"/>
    <trip id="veh134" depart="457.20" departLane="best" from="385247937#0" to="-8929734#0" type="passenger"/>
    <trip id="veh135" depart="460.62" departLane="best" from="8937421#0" to="385247935#1" type="passenger"/>
    <trip id="veh136" depart="464.03" departLane="best" from="8937421#0" to="385245842#1" type="passenger"/>
    <trip id="veh137" depart="467.44" departLane="best" from="27459776#0" to="385240397" type="passenger"/>
    <trip id="veh138" depart="470.85" departLane="best" from="385247937#0" to="385245842#1" type="passenger"/>
    <trip id="veh139" depart="474.26" departLane="best" from="449688279" to="27422563#3" type="passenger"/>
    <trip id="veh140" depart="477.68" departLane="best" from="385247937#0" to="-52014943#2" type="passenger"/>
    <trip id="veh142" depart="484.50" departLane="best" from="8929734#0" to="-52014943#0" type="passenger"/>
    <trip id="veh143" depart="487.91" departLane="best" from="-8950269" to="27422563#3" type="passenger"/>
    <trip id="veh144" depart="491.32" departLane="best" from="449688279" to="-8937421#0" type="passenger"/>
    <trip id="veh145" depart="494.74" departLane="best" from="8929734#0" to="385247935#1" type="passenger"/>
    <trip id="veh146" depart="498.15" departLane="best" from="449688279" to="-8929734#0" type="passenger"/>
    <trip id="veh147" depart="501.56" departLane="best" from="385247937#0" to="385245842#1" type="passenger"/>
    <trip id="veh148" depart="504.97" departLane="best" from="27422561#0" to="385247935#1" type="passenger"/>
    <trip id="veh149" depart="508.38" departLane="best" from="385248626#0" to="-8929734#0" type="passenger"/>
    <trip id="veh150" depart="511.79" departLane="best" from="449688279" to="-27422562#2" type="passenger"/>
    <trip id="veh152" depart="518.62" departLane="best" from="385248626#0" to="-27459776#0" type="passenger"/>
    <trip id="veh153" depart="522.03" departLane="best" from="27459776#0" to="385248627" type="passenger"/>
    <trip id="veh154" depart="525.44" departLane="best" from="385247937#0" to="385248627" type="passenger"/>
    <trip id="veh157" depart="535.68" departLane="best" from="8929734#0" to="385245842#1" type="passenger"/>
    <trip id="veh158" depart="539.09" departLane="best" from="52014943#0" to="27422563#3" type="passenger"/>
    <trip id="veh159" depart="542.50" departLane="best" from="8929734#0" to="385240397" type="passenger"/>
    <trip id="veh160" depart="545.91" departLane="best" from="8937421#0" to="385247935#1" type="passenger"/>
    <trip id="veh161" depart="549.33" departLane="best" from="385248626#0" to="-8929734#0" type="passenger"/>
    <trip id="veh162" depart="552.74" departLane="best" from="27459776#0" to="385245842#1" type="passenger"/>
    <trip id="veh163" depart="556.15" departLane="best" from="52014943#0" to="27422563#3" type="passenger"/>
    <trip id="veh164" depart="559.56" departLane="best" from="449688279" to="-8929734#0" type="passenger"/>
    <trip id="veh165" depart="562.97" departLane="best" from="-8950269" to="-8929734#0" type="passenger"/>
    <trip id="veh166" depart="566.39" departLane="best" from="27459776#0" to="-8937421#0" type="passenger"/>
    <trip id="veh167" depart="569.80" departLane="best" from="27422562#2" to="385247935#1" type="passenger"/>
    <trip id="veh168" depart="573.21" departLane="best" from="385247937#0" to="27460054#1" type="passenger"/>
    <trip id="veh169" depart="576.62" departLane="best" from="385247937#0" to="-52014943#0" type="passenger"/>
    <trip id="veh170" depart="580.03" departLane="best" from="417918238#1" to="385247935#1" type="passenger"/>
    <trip id="veh172" depart="586.86" departLane="best" from="385247937#0" to="-27422562#2" type="passenger"/>
    <trip id="veh175" depart="597.09" departLane="best" from="385248626#0" to="385245842#1" type="passenger"/>
    <trip id="veh176" depart="600.51" departLane="best" from="385247937#0" to="-27459776#0" type="passenger"/>
    <trip id="veh177" depart="603.92" departLane="best" from="27459776#0" to="385247935#1" type="passenger"/>
    <trip id="veh178" depart="607.33" departLane="best" from="385247937#0" to="-52014943#0" type="passenger"/>
    <trip id="veh179" depart="610.74" departLane="best" from="449688279" to="-27459776#0" type="passenger"/>
    <trip id="veh180" depart="614.15" departLane="best" from="385247937#0" to="385245842#1" type="passenger"/>
    <trip id="veh181" depart="617.57" departLane="best" from="-8950269" to="385245842#1" type="passenger"/>
    <trip id="veh182" depart="620.98" departLane="best" from="52014943#0" to="-8937421#0" type="passenger"/>
    <trip id="veh183" depart="624.39" departLane="best" from="-8950269" to="27459776#1" type="passenger"/>
    <trip id="veh184" depart="627.80" departLane="best" from="449688279" to="385248627" type="passenger"/>
    <trip id="veh185" depart="631.21" departLane="best" from="449688279" to="385247935#1" type="passenger"/>
    <trip id="veh186" depart="634.63" departLane="best" from="8937421#0" to="-52014943#0" type="passenger"/>
    <trip id="veh187" depart="638.04" departLane="best" from="-8950269" to="-52014943#0" type="passenger"/>
    <trip id="veh188" depart="641.45" departLane="best" from="27422561#0" to="385247935#1" type="passenger"/>
    <trip id="veh189" depart="644.86" departLane="best" from="385248626#0" to="-8929734#0" type="passenger"/>
    <trip id="veh190" depart="648.27" departLane="best" from="27422561#0" to="385245842#1" type="passenger"/>
    <trip id="veh192" depart="655.10" departLane="best" from="-8950269" to="-27459776#0" type="passenger"/>
    <trip id="veh193" depart="658.51" departLane="best" from="27459776#0" to="385247935#1" type="passenger"/>
    <trip id="veh194" depart="661.92" departLane="best" from="52014943#0" to="385245842#1" type="passenger"/>
    <trip id="veh195" depart="665.33" departLane="best" from="-8950269" to="385248627" type="passenger"/>
    <trip id="veh196" depart="668.75" departLane="best" from="8929734#0" to="385245842#1" type="passenger"/>
    <trip id="veh198" depart="675.57" departLane="best" from="52014943#0" to="-8937421#0" type="passenger"/>
    <trip id="veh199" depart="678.98" departLane="best" from="385247937#0" to="-8937421#0" type="passenger"/>
    <trip id="veh200" depart="682.39" departLane="best" from="385248626#0" to="-8937421#0" type="passenger"/>
    <trip id="veh201" depart="685.81" departLane="best" from="8929734#0" to="385248627" type="passenger"/>
    <trip id="veh202" depart="689.22" departLane="best" from="449688279" to="385248627" type="passenger"/>
    <trip id="veh203" depart="692.63" departLane="best" from="52014943#0" to="27422563#1" type="passenger"/>
    <trip id="veh205" depart="699.45" departLane="best" from="27459776#0" to="385248627" type="passenger"/>
    <trip id="veh206" depart="702.87" departLane="best" from="385248626#0" to="27422563#3" type="passenger"/>
    <trip id="veh207" depart="706.28" departLane="best" from="27459776#0" to="385248627" type="passenger"/>
    <trip id="veh208" depart="709.69" departLane="best" from="385247937#1" to="385245842#1" type="passenger"/>
    <trip id="veh209" depart="713.10" departLane="best" from="385247937#0" to="-27459776#0" type="passenger"/>
    <trip id="veh210" depart="716.51" departLane="best" from="8929734#0" to="-52014943#0" type="passenger"/>
    <trip id="veh211" depart="719.92" departLane="best" from="27422561#0" to="385248627" type="passenger"/>
    <trip id="veh212" depart="723.34" departLane="best" from="52014943#0" to="-8929734#0" type="passenger"/>
    <trip id="veh214" depart="730.16" departLane="best" from="385248626#0" to="385247936#0" type="passenger"/>
    <trip id="veh215" depart="733.57" departLane="best" from="52014943#0" to="385245842#1" type="passenger"/>
    <trip id="veh216" depart="736.98" departLane="best" from="-8950269" to="-8929734#0" type="passenger"/>
    <trip id="veh217" depart="740.40" departLane="best" from="52014943#0" to="-8929734#0" type="passenger"/>
    <trip id="veh218" depart="743.81" departLane="best" from="417918237" to="27422563#3" type="passenger"/>
    <trip id="veh219" depart="747.22" departLane="best" from="385248626#0" to="27422561#1" type="passenger"/>
    <trip id="veh220" depart="750.63" departLane="best" from="52014943#0" to="-8937421#0" type="passenger"/>
    <trip id="veh221" depart="754.04" departLane="best" from="52014943#0" to="-8929734#0" type="passenger"/>
    <trip id="veh222" depart="757.46" departLane="best" from="27422561#0" to="-52014943#0" type="passenger"/>
    <trip id="veh223" depart="760.87" departLane="best" from="385248626#0" to="385247936#2" type="passenger"/>
    <trip id="veh224" depart="764.28" departLane="best" from="385248626#0" to="385247935#1" type="passenger"/>
    <trip id="veh225" depart="767.69" departLane="best" from="385248626#0" to="-8929734#0" type="passenger"/>
    <trip id="veh226" depart="771.10" departLane="best" from="8937421#0" to="385245842#1" type="passenger"/>
    <trip id="veh227" depart="774.52" departLane="best" from="8929734#0" to="385245842#1" type="passenger"/>
    <trip id="veh228" depart="777.93" departLane="best" from="385248626#0" to="27422563#3" type="passenger"/>
    <trip id="veh229" depart="781.34" departLane="best" from="-8950269" to="385245842#1" type="passenger"/>
    <trip id="veh230" depart="784.75" departLane="best" from="-8950269" to="-52014943#0" type="passenger"/>
    <trip id="veh231" depart="788.16" departLane="best" from="385248626#0" to="-8929734#0" type="passenger"/>
    <trip id="veh232" depart="791.58" departLane="best" from="8937421#0" to="-52014943#0" type="passenger"/>
    <trip id="veh233" depart="794.99" departLane="best" from="52014943#0" to="385245842#1" type="passenger"/>
    <trip id="veh234" depart="798.40" departLane="best" from="8926310#0" to="-8929734#0" type="passenger"/>
    <trip id="veh235" depart="801.81" departLane="best" from="385248626#0" to="27422563#3" type="passenger"/>
    <trip id="veh236" depart="805.22" departLane="best" from="385247937#0" to="385248627" type="passenger"/>
    <trip id="veh238" depart="812.05" departLane="best" from="449688279" to="-52014943#0" type="passenger"/>
    <trip id="veh239" depart="815.46" departLane="best" from="449688279" to="-8929734#0" type="passenger"/>
    <trip id="veh240" depart="818.87" departLane="best" from="27422562#2" to="385247935#1" type="passenger"/>
    <trip id="veh241" depart="822.28" departLane="best" from="52014943#0" to="27422563#3" type="passenger"/>
    <trip id="veh243" depart="829.11" departLane="best" from="52014943#1" to="385245842#1" type="passenger"/>
    <trip id="veh247" depart="842.76" departLane="best" from="52014943#0" to="385245842#1" type="passenger"/>
    <trip id="veh248" depart="846.17" departLane="best" from="52014943#0" to="385247935#1" type="passenger"/>
    <trip id="veh249" depart="849.58" departLane="best" from="385248626#0" to="-27459776#0" type="passenger"/>
    <trip id="veh250" depart="852.99" departLane="best" from="8929734#0" to="385245842#1" type="passenger"/>
    <trip id="veh251" depart="856.40" departLane="best" from="8937421#0" to="8954995" type="passenger"/>
    <trip id="veh252" depart="859.82" departLane="best" from="449688279" to="-8929734#0" type="passenger"/>
    <trip id="veh253" depart="863.23" departLane="best" from="385248626#0" to="385245854#0" type="passenger"/>
    <trip id="veh254" depart="866.64" departLane="best" from="8937421#0" to="-52014943#0" type="passenger"/>
    <trip id="veh255" depart="870.05" departLane="best" from="417918238#1" to="385245842#1" type="passenger"/>
    <trip id="veh256" depart="873.46" departLane="best" from="385248626#0" to="-27459776#0" type="passenger"/>
    <trip id="veh257" depart="876.88" departLane="best" from="385240397" to="-8937421#0" type="passenger"/>
    <trip id="veh258" depart="880.29" departLane="best" from="449688279" to="385248627" type="passenger"/>
    <trip id="veh259" depart="883.70" departLane="best" from="27459776#0" to="385247935#1" type="passenger"/>
    <trip id="veh261" depart="890.52" departLane="best" from="8929734#0" to="385245842#1" type="passenger"/>
    <trip id="veh262" depart="893.94" departLane="best" from="385247937#0" to="-8929734#1" type="passenger"/>
    <trip id="veh264" depart="900.76" departLane="best" from="385247937#0" to="27422563#3" type="passenger"/>
    <trip id="veh265" depart="904.17" departLane="best" from="8937421#0" to="385247935#0" type="passenger"/>
    <trip id="veh266" depart="907.58" departLane="best" from="385248626#0" to="-8937421#0" type="passenger"/>
    <trip id="veh267" depart="911.00" departLane="best" from="52014943#0" to="385245842#1" type="passenger"/>
    <trip id="veh270" depart="921.23" departLane="best" from="449688279" to="-8929734#0" type="passenger"/>
    <trip id="veh271" depart="924.64" departLane="best" from="27422561#0" to="385245842#1" type="passenger"/>
    <trip id="veh272" depart="928.05" departLane="best" from="385248626#0" to="-27459776#0" type="passenger"/>
    <trip id="veh273" depart="931.47" departLane="best" from="385247937#0" to="-52014943#0" type="passenger"/>
    <trip id="veh274" depart="934.88" departLane="best" from="52014943#0" to="27422563#3" type="passenger"/>
    <trip id="veh275" depart="938.29" departLane="best" from="27459776#0" to="385248627" type="passenger"/>
    <trip id="veh276" depart="941.70" departLane="best" from="385248626#0" to="-8937421#0" type="passenger"/>
    <trip id="veh277" depart="945.11" departLane="best" from="8929734#0" to="385248627" type="passenger"/>
    <trip id="veh278" depart="948.53" departLane="best" from="27459776#0" to="385248627" type="passenger"/>
    <trip id="veh279" depart="951.94" departLane="best" from="385248626#0" to="-8937421#0" type="passenger"/>
    <trip id="veh280" depart="955.35" departLane="best" from="385248626#0" to="27460054#1" type="passenger"/>
    <trip id="veh281" depart="958.76" departLane="best" from="385247937#0" to="-8937421#0" type="passenger"/>
    <trip id="veh282" depart="962.17" departLane="best" from="27422561#0" to="385247935#1" type="passenger"/>
    <trip id="veh283" depart="965.59" departLane="best" from="396835328" to="-8929734#0" type="passenger"/>
    <trip id="veh284" depart="969.00" departLane="best" from="52014943#0" to="385247935#1" type="passenger"/>
    <trip id="veh285" depart="972.41" departLane="best" from="449688279" to="385248627" type="passenger"/>
    <trip id="veh286" depart="975.82" departLane="best" from="-8950269" to="27422563#3" type="passenger"/>
    <trip id="veh287" depart="979.23" departLane="best" from="385248626#0" to="27422563#3" type="passenger"/>
    <trip id="veh288" depart="982.65" departLane="best" from="52014943#0" to="-8937421#0" type="passenger"/>
    <trip id="veh289" depart="986.06" departLane="best" from="449688279" to="-52014943#0" type="passenger"/>
    <trip id="veh292" depart="996.29" departLane="best" from="449688279" to="385248627" type="passenger"/>
    <trip id="veh293" depart="999.71" departLane="best" from="8929734#0" to="385248627" type="passenger"/>
    <trip id="veh294" depart="1003.12" departLane="best" from="385247937#0" to="-8937421#0" type="passenger"/>
    <trip id="veh295" depart="1006.53" departLane="best" from="52014943#0" to="385247936#0" type="passenger"/>
    <trip id="veh296" depart="1009.94" departLane="best" from="-8950269" to="385245842#1" type="passenger"/>
    <trip id="veh297" depart="1013.35" departLane="best" from="52014943#0" to="27422562#3" type="passenger"/>
    <trip id="veh298" depart="1016.77" departLane="best" from="-8950269" to="385245842#1" type="passenger"/>
    <trip id="veh300" depart="1023.59" departLane="best" from="-8950269" to="385248627" type="passenger"/>
    <trip id="veh301" depart="1027.00" departLane="best" from="27459776#0" to="-8937421#0" type="passenger"/>
    <trip id="veh302" depart="1030.41" departLane="best" from="8929734#0" to="385245842#1" type="passenger"/>
    <trip id="veh304" depart="1037.24" departLane="best" from="8937421#0" to="385247935#1" type="passenger"/>
    <trip id="veh305" depart="1040.65" departLane="best" from="449688279" to="27422561#1" type="passenger"/>
    <trip id="veh306" depart="1044.06" departLane="best" from="27459776#0" to="385248627" type="passenger"/>
    <trip id="veh307" depart="1047.47" departLane="best" from="385248626#0" to="-8929734#0" type="passenger"/>
    <trip id="veh308" depart="1050.89" departLane="best" from="396835328" to="385245842#1" type="passenger"/>
    <trip id="veh309" depart="1054.30" departLane="best" from="8937421#0" to="385247935#1" type="passenger"/>
    <trip id="veh310" depart="1057.71" departLane="best" from="27459776#0" to="385245842#1" type="passenger"/>
    <trip id="veh311" depart="1061.12" departLane="best" from="449688279" to="385247935#1" type="passenger"/>
    <trip id="veh312" depart="1064.53" departLane="best" from="-8950269" to="385245842#1" type="passenger"/>
    <trip id="veh314" depart="1071.36" departLane="best" from="27459776#0" to="385248627" type="passenger"/>
    <trip id="veh315" depart="1074.77" departLane="best" from="449688279" to="-8937421#0" type="passenger"/>
    <trip id="veh316" depart="1078.18" departLane="best" from="449688279" to="385247935#1" type="passenger"/>
    <trip id="veh317" depart="1081.59" departLane="best" from="449688279" to="385248627" type="passenger"/>