<?xml version="1.0"?>
<!-- generated on 2016-11-27 18:57:32 by $Id: route2trips.py 20433 2016-04-13 08:00:14Z behrisch $ -->
<trips>
    <vType id="passenger" vClass="passenger"/>
    <trip id="veh0" depart="0.00" departLane="best" from="-5652117#1" to="-5637144#0" type="passenger"/>
    <trip id="veh1" depart="6.16" departLane="best" from="5637144#0" to="5637144#1" type="passenger"/>
    <trip id="veh2" depart="12.32" departLane="best" from="5652117#0" to="-5637144#0" type="passenger"/>
    <trip id="veh3" depart="18.49" departLane="best" from="-5652117#1" to="-5637144#0" type="passenger"/>
    <trip id="veh4" depart="24.65" departLane="best" from="-5637144#2" to="-5637144#0" type="passenger"/>
    <trip id="veh5" depart="30.81" departLane="best" from="5637144#0" to="5637144#1" type="passenger"/>
    <trip id="veh6" depart="36.97" departLane="best" from="5652117#0" to="-5637144#0" type="passenger"/>
    <trip id="veh7" depart="43.14" departLane="best" from="5652117#0" to="5637144#1" type="passenger"/>
    <trip id="veh8" depart="49.30" departLane="best" from="-5652117#1" to="-5637144#0" type="passenger"/>
    <trip id="veh9" depart="55.46" departLane="best" from="-5637144#2" to="-5637144#0" type="passenger"/>
    <trip id="veh10" depart="61.62" departLane="best" from="5652117#0" to="5637144#1" type="passenger"/>
    <trip id="veh11" depart="67.78" departLane="best" from="5652117#0" to="5637144#1" type="passenger"/>
    <trip id="veh12" depart="73.95" departLane="best" from="5637144#0" to="5652117#1" type="passenger"/>
    <trip id="veh13" depart="80.11" departLane="best" from="-5652117#1" to="5637144#1" type="passenger"/>
    <trip id="veh14" depart="86.27" departLane="best" from="5652117#0" to="5637144#1" type="passenger"/>
    <trip id="veh15" depart="92.43" departLane="best" from="5652117#0" to="5637144#1" type="passenger"/>
    <trip id="veh16" depart="98.59" departLane="best" from="-5637144#2" to="-5652117#0" type="passenger"/>
    <trip id="veh17" depart="104.76" departLane="best" from="-5637144#2" to="-5637144#0" type="passenger"/>
    <trip id="veh18" depart="110.92" departLane="best" from="-5637144#2" to="-5652117#0" type="passenger"/>
    <trip id="veh19" depart="117.08" departLane="best" from="5637144#0" to="-5652117#0" type="passenger"/>
    <trip id="veh20" depart="123.24" departLane="best" from="-5652117#1" to="-5637144#0" type="passenger"/>
    <trip id="veh21" depart="129.41" departLane="best" from="5637144#0" to="5637144#1" type="passenger"/>
    <trip id="veh22" depart="135.57" departLane="best" from="-5637144#2" to="-5652117#0" type="passenger"/>
    <trip id="veh23" depart="141.73" departLane="best" from="5652117#0" to="5637144#1" type="passenger"/>
    <trip id="veh24" depart="147.89" departLane="best" from="5637144#0" to="5637144#1" type="passenger"/>
    <trip id="veh25" depart="154.05" departLane="best" from="5652117#0" to="5652117#1" type="passenger"/>
    <trip id="veh26" depart="160.22" departLane="best" from="-5637144#2" to="-5637144#0" type="passenger"/>
    <trip id="veh27" depart="166.38" departLane="best" from="-5652117#1" to="-5652117#0" type="passenger"/>
    <trip id="veh28" depart="172.54" departLane="best" from="-5637144#2" to="5652117#1" type="passenger"/>
    <trip id="veh29" depart="178.70" departLane="best" from="5637144#0" to="-5652117#0" type="passenger"/>
    <trip id="veh30" depart="184.86" departLane="best" from="-5652117#1" to="-5637144#0" type="passenger"/>
    <trip id="veh31" depart="191.03" departLane="best" from="5637144#0" to="-5652117#0" type="passenger"/>
    <trip id="veh32" depart="197.19" departLane="best" from="5637144#0" to="5652117#1" type="passenger"/>
    <trip id="veh33" depart="203.35" departLane="best" from="-5652117#1" to="-5637144#0" type="passenger"/>
    <trip id="veh34" depart="209.51" departLane="best" from="5652117#0" to="5637144#1" type="passenger"/>
    <trip id="veh35" depart="215.68" departLane="best" from="-5637144#2" to="-5637144#0" type="passenger"/>
    <trip id="veh36" depart="221.84" departLane="best" from="-5637144#2" to="-5652117#0" type="passenger"/>
    <trip id="veh37" depart="228.00" departLane="best" from="5652117#0" to="5637144#1" type="passenger"/>
    <trip id="veh38" depart="234.16" departLane="best" from="5652117#0" to="5652117#1" type="passenger"/>
    <trip id="veh39" depart="240.32" departLane="best" from="5637144#0" to="5637144#1" type="passenger"/>
    <trip id="veh40" depart="246.49" departLane="best" from="-5652117#1" to="5637144#1" type="passenger"/>
    <trip id="veh41" depart="252.65" departLane="best" from="-5637144#2" to="-5652117#0" type="passenger"/>
    <trip id="veh42" depart="258.81" departLane="best" from="5652117#0" to="5652117#1" type="passenger"/>
    <trip id="veh43" depart="264.97" departLane="best" from="-5652117#1" to="5637144#1" type="passenger"/>
    <trip id="veh44" depart="271.14" departLane="best" from="5652117#0" to="5637144#1" type="passenger"/>
    <trip id="veh45" depart="277.30" departLane="best" from="5652117#0" to="5637144#1" type="passenger"/>
    <trip id="veh46" depart="283.46" departLane="best" from="-5637144#2" to="-5652117#0" type="passenger"/>
    <trip id="veh47" depart="289.62" departLane="best" from="-5637144#2" to="5652117#1" type="passenger"/>
    <trip id="veh48" depart="295.78" departLane="best" from="5652117#0" to="5652117#1" type="passenger"/>
    <trip id="veh49" depart="301.95" departLane="best" from="-5652117#1" to="-5637144#0" type="passenger"/>
    <trip id="veh50" depart="308.11" departLane="best" from="5652117#0" to="5652117#1" type="passenger"/>
    <trip id="veh51" depart="314.27" departLane="best" from="-5637144#2" to="-5652117#0" type="passenger"/>
    <trip id="veh52" depart="320.43" departLane="best" from="-5637144#2" to="5652117#1" type="passenger"/>
    <trip id="veh53" depart="326.59" departLane="best" from="5652117#0" to="-5637144#0" type="passenger"/>
    <trip id="veh54" depart="332.76" departLane="best" from="-5652117#1" to="5637144#1" type="passenger"/>
    <trip id="veh55" depart="338.92" departLane="best" from="-5652117#1" to="-5637144#0" type="passenger"/>
    <trip id="veh56" depart="345.08" departLane="best" from="5637144#0" to="5637144#1" type="passenger"/>
    <trip id="veh57" depart="351.24" departLane="best" from="-5637144#2" to="-5652117#0" type="passenger"/>
    <trip id="veh58" depart="357.41" departLane="best" from="5652117#0" to="5637144#1" type="passenger"/>
    <trip id="veh59" depart="363.57" departLane="best" from="-5652117#1" to="5637144#1" type="passenger"/>
    <trip id="veh60" depart="369.73" departLane="best" from="-5637144#2" to="-5637144#0" type="passenger"/>
    <trip id="veh61" depart="375.89" departLane="best" from="-5652117#1" to="5637144#1" type="passenger"/>
    <trip id="veh62" depart="382.05" departLane="best" from="-5637144#2" to="-5637144#0" type="passenger"/>
    <trip id="veh63" depart="388.22" departLane="best" from="-5637144#2" to="5652117#1" type="passenger"/>
    <trip id="veh64" depart="394.38" departLane="best" from="5652117#0" to="-5637144#0" type="passenger"/>
    <trip id="veh65" depart="400.54" departLane="best" from="-5637144#2" to="-5637144#0" type="passenger"/>
    <trip id="veh66" depart="406.70" departLane="best" from="5652117#0" to="5637144#1" type="passenger"/>
    <trip id="veh67" depart="412.87" departLane="best" from="5652117#0" to="-5637144#0" type="passenger"/>
    <trip id="veh68" depart="419.03" departLane="best" from="-5637144#2" to="-5652117#0" type="passenger"/>
    <trip id="veh69" depart="425.19" departLane="best" from="-5652117#1" to="-5652117#0" type="passenger"/>
    <trip id="veh70" depart="431.35" departLane="best" from="5637144#0" to="5637144#1" type="passenger"/>
    <trip id="veh71" depart="437.51" departLane="best" from="5652117#0" to="-5637144#0" type="passenger"/>
    <trip id="veh72" depart="443.68" departLane="best" from="-5652117#1" to="-5652117#0" type="passenger"/>
    <trip id="veh73" depart="449.84" departLane="best" from="5652117#0" to="-5637144#0" type="passenger"/>
    <trip id="veh74" depart="456.00" departLane="best" from="-5637144#2" to="-5652117#0" type="passenger"/>
    <trip id="veh75" depart="462.16" departLane="best" from="-5652117#1" to="-5652117#0" type="passenger"/>
    <trip id="veh76" depart="468.32" departLane="best" from="-5637144#2" to="5652117#1" type="passenger"/>
    <trip id="veh77" depart="474.49" departLane="best" from="5652117#0" to="5652117#1" type="passenger"/>
    <trip id="veh78" depart="480.65" departLane="best" from="5652117#0" to="5652117#1" type="passenger"/>
    <trip id="veh79" depart="486.81" departLane="best" from="5652117#0" to="-5637144#0" type="passenger"/>
    <trip id="veh80" depart="492.97" departLane="best" from="-5652117#1" to="-5637144#0" type="passenger"/>
    <trip id="veh81" depart="499.14" departLane="best" from="-5652117#1" to="-5637144#0" type="passenger"/>
    <trip id="veh82" depart="505.30" departLane="best" from="-5652117#1" to="-5652117#0" type="passenger"/>
    <trip id="veh83" depart="511.46" departLane="best" from="5652117#0" to="5652117#1" type="passenger"/>
    <trip id="veh84" depart="517.62" departLane="best" from="5637144#0" to="5637144#1" type="passenger"/>
    <trip id="veh85" depart="523.78" departLane="best" from="-5637144#2" to="-5652117#0" type="passenger"/>
    <trip id="veh86" depart="529.95" departLane="best" from="5652117#0" to="5637144#1" type="passenger"/>
    <trip id="veh87" depart="536.11" departLane="best" from="5637144#0" to="5637144#1" type="passenger"/>
    <trip id="veh88" depart="542.27" departLane="best" from="5637144#0" to="5652117#1" type="passenger"/>
    <trip id="veh89" depart="548.43" departLane="best" from="-5637144#2" to="5652117#1" type="passenger"/>
    <trip id="veh90" depart="554.59" departLane="best" from="-5637144#2" to="-5637144#0" type="passenger"/>
    <trip id="veh91" depart="560.76" departLane="best" from="5637144#0" to="5637144#1" type="passenger"/>
    <trip id="veh92" depart="566.92" departLane="best" from="-5637144#2" to="-5637144#0" type="passenger"/>
    <trip id="veh93" depart="573.08" departLane="best" from="5652117#0" to="-5637144#0" type="passenger"/>
    <trip id="veh94" depart="579.24" departLane="best" from="5637144#0" to="5637144#1" type="passenger"/>
    <trip id="veh95" depart="585.41" departLane="best" from="-5652117#1" to="5637144#1" type="passenger"/>
    <trip id="veh96" depart="591.57" departLane="best" from="5637144#0" to="5652117#1" type="passenger"/>
    <trip id="veh97" depart="597.73" departLane="best" from="-5637144#2" to="-5652117#0" type="passenger"/>
    <trip id="veh98" depart="603.89" departLane="best" from="5637144#0" to="-5652117#0" type="passenger"/>
    <trip id="veh99" depart="610.05" departLane="best" from="-5637144#2" to="-5652117#0" type="passenger"/>
    <trip id="veh100" depart="616.22" departLane="best" from="5652117#0" to="5652117#1" type="passenger"/>
    <trip id="veh101" depart="622.38" departLane="best" from="-5637144#2" to="-5637144#0" type="passenger"/>
    <trip id="veh102" depart="628.54" departLane="best" from="5652117#0" to="5652117#1" type="passenger"/>
    <trip id="veh103" depart="634.70" departLane="best" from="-5652117#1" to="-5637144#0" type="passenger"/>
    <trip id="veh104" depart="640.87" departLane="best" from="5652117#0" to="5637144#1" type="passenger"/>
    <trip id="veh105" depart="647.03" departLane="best" from="5637144#0" to="5652117#1" type="passenger"/>
    <trip id="veh106" depart="653.19" departLane="best" from="5637144#0" to="5652117#1" type="passenger"/>
    <trip id="veh107" depart="659.35" departLane="best" from="-5637144#2" to="-5637144#0" type="passenger"/>
    <trip id="veh108" depart="665.51" departLane="best" from="-5652117#1" to="5637144#1" type="passenger"/>
    <trip id="veh109" depart="671.68" departLane="best" from="5637144#0" to="-5652117#0" type="passenger"/>
    <trip id="veh110" depart="677.84" departLane="best" from="5652117#0" to="-5637144#0" type="passenger"/>
    <trip id="veh111" depart="684.00" departLane="best" from="-5652117#1" to="-5652117#0" type="passenger"/>
    <trip id="veh112" depart="690.16" departLane="best" from="-5637144#2" to="5652117#1" type="passenger"/>
    <trip id="veh113" depart="696.32" departLane="best" from="5637144#0" to="-5652117#0" type="passenger"/>
    <trip id="veh114" depart="702.49" departLane="best" from="5637144#0" to="5637144#1" type="passenger"/>
    <trip id="veh115" depart="708.65" departLane="best" from="-5652117#1" to="-5637144#0" type="passenger"/>
    <trip id="veh116" depart="714.81" departLane="best" from="-5637144#2" to="5652117#1" type="passenger"/>
    <trip id="veh117" depart="720.97" departLane="best" from="5652117#0" to="5637144#1" type="passenger"/>
    <trip id="veh118" depart="727.14" departLane="best" from="5652117#0" to="5637144#1" type="passenger"/>
    <trip id="veh119" depart="733.30" departLane="best" from="-5637144#2" to="-5637144#0" type="passenger"/>
    <trip id="veh120" depart="739.46" departLane="best" from="5652117#0" to="5652117#1" type="passenger"/>
    <trip id="veh121" depart="745.62" departLane="best" from="5652117#0" to="-5637144#0" type="passenger"/>
    <trip id="veh122" depart="751.78" departLane="best" from="-5637144#2" to="-5637144#0" type="passenger"/>
    <trip id="veh123" depart="757.95" departLane="best" from="5652117#0" to="5652117#1" type="passenger"/>
    <trip id="veh124" depart="764.11" departLane="best" from="-5652117#1" to="5637144#1" type="passenger"/>
    <trip id="veh125" depart="770.27" departLane="best" from="-5637144#2" to="5652117#1" type="passenger"/>
    <trip id="veh126" depart="776.43" departLane="best" from="5652117#0" to="5652117#1" type="passenger"/>
    <trip id="veh127" depart="782.59" departLane="best" from="5652117#0" to="5652117#1" type="passenger"/>
    <trip id="veh128" depart="788.76" departLane="best" from="5652117#0" to="5652117#1" type="passenger"/>
    <trip id="veh129" depart="794.92" departLane="best" from="5652117#0" to="-5637144#0" type="passenger"/>
    <trip id="veh130" depart="801.08" departLane="best" from="5652117#0" to="5652117#1" type="passenger"/>
    <trip id="veh131" depart="807.24" departLane="best" from="-5637144#2" to="5652117#1" type="passenger"/>
    <trip id="veh132" depart="813.41" departLane="best" from="-5652117#1" to="-5652117#0" type="passenger"/>
    <trip id="veh133" depart="819.57" departLane="best" from="5652117#0" to="-5637144#0" type="passenger"/>
    <trip id="veh134" depart="825.73" departLane="best" from="-5637144#2" to="-5637144#0" type="passenger"/>
    <trip id="veh135" depart="831.89" departLane="best" from="5637144#0" to="-5652117#0" type="passenger"/>
    <trip id="veh136" depart="838.05" departLane="best" from="5652117#0" to="5637144#1" type="passenger"/>
    <trip id="veh137" depart="844.22" departLane="best" from="5652117#0" to="-5637144#0" type="passenger"/>
    <trip id="veh138" depart="850.38" departLane="best" from="5652117#0" to="-5637144#0" type="passenger"/>
    <trip id="veh139" depart="856.54" departLane="best" from="-5637144#2" to="-5652117#0" type="passenger"/>
    <trip id="veh140" depart="862.70" departLane="best" from="5637144#0" to="-5652117#0" type="passenger"/>
    <trip id="veh141" depart="868.87" departLane="best" from="5637144#0" to="5637144#1" type="passenger"/>
    <trip id="veh142" depart="875.03" departLane="best" from="-5652117#1" to="5637144#1" type="passenger"/>
    <trip id="veh143" depart="881.19" departLane="best" from="-5652117#1" to="5637144#1" type="passenger"/>
    <trip id="veh144" depart="887.35" departLane="best" from="-5637144#2" to="5652117#1" type="passenger"/>
    <trip id="veh145" depart="893.51" departLane="best" from="5637144#0" to="5637144#1" type="passenger"/>
    <trip id="veh146" depart="899.68" departLane="best" from="5637144#0" to="5637144#1" type="passenger"/>
    <trip id="veh147" depart="905.84" departLane="best" from="-5652117#1" to="-5637144#0" type="passenger"/>
    <trip id="veh148" depart="912.00" departLane="best" from="5637144#0" to="-5652117#0" type="passenger"/>
    <trip id="veh149" depart="918.16" departLane="best" from="5637144#0" to="-5652117#0" type="passenger"/>
    <trip id="veh150" depart="924.32" departLane="best" from="-5652117#1" to="-5652117#0" type="passenger"/>
    <trip id="veh151" depart="930.49" departLane="best" from="-5652117#1" to="-5652117#0" type="passenger"/>
    <trip id="veh152" depart="936.65" departLane="best" from="-5637144#2" to="-5652117#0" type="passenger"/>
    <trip id="veh153" depart="942.81" departLane="best" from="5652117#0" to="5637144#1" type="passenger"/>
    <trip id="veh154" depart="948.97" departLane="best" from="5652117#0" to="5637144#1" type="passenger"/>
    <trip id="veh155" depart="955.14" departLane="best" from="-5652117#1" to="5637144#1" type="passenger"/>
    <trip id="veh156" depart="961.30" departLane="best" from="-5637144#2" to="-5652117#0" type="passenger"/>
    <trip id="veh157" depart="967.46" departLane="best" from="-5652117#1" to="5637144#1" type="passenger"/>
    <trip id="veh158" depart="973.62" departLane="best" from="5637144#0" to="-5652117#0" type="passenger"/>
    <trip id="veh159" depart="979.78" departLane="best" from="-5652117#1" to="-5637144#0" type="passenger"/>
    <trip id="veh160" depart="985.95" departLane="best" from="5652117#0" to="-5637144#0" type="passenger"/>
    <trip id="veh161" depart="992.11" departLane="best" from="5637144#0" to="-5652117#0" type="passenger"/>
    <trip id="veh162" depart="998.27" departLane="best" from="5652117#0" to="5652117#1" type="passenger"/>
    <trip id="veh163" depart="1004.43" departLane="best" from="-5637144#2" to="-5637144#0" type="passenger"/>
    <trip id="veh164" depart="1010.60" departLane="best" from="-5637144#2" to="-5652117#0" type="passenger"/>
    <trip id="veh165" depart="1016.76" departLane="best" from="5652117#0" to="-5637144#0" type="passenger"/>
    <trip id="veh166" depart="1022.92" departLane="best" from="-5652117#1" to="5637144#1" type="passenger"/>
    <trip id="veh167" depart="1029.08" departLane="best" from="-5652117#1" to="-5637144#0" type="passenger"/>
    <trip id="veh168" depart="1035.24" departLane="best" from="5652117#0" to="5652117#1" type="passenger"/>
    <trip id="veh169" depart="1041.41" departLane="best" from="-5637144#2" to="-5652117#0" type="passenger"/>
    <trip id="veh170" depart="1047.57" departLane="best" from="-5637144#2" to="5652117#1" type="passenger"/>
    <trip id="veh171" depart="1053.73" departLane="best" from="-5637144#2" to="5652117#1" type="passenger"/>
    <trip id="veh172" depart="1059.89" departLane="best" from="5637144#0" to="5652117#1" type="passenger"/>
    <trip id="veh173" depart="1066.05" departLane="best" from="5637144#0" to="5652117#1" type="passenger"/>
    <trip id="veh174" depart="1072.22" departLane="best" from="5652117#0" to="5637144#1" type="passenger"/>
    <trip id="veh175" depart="1078.38" departLane="best" from="5637144#0" to="5637144#1" type="passenger"/>
    <trip id="veh176" depart="1084.54" departLane="best" from="5652117#0" to="5637144#1" type="passenger"/>
    <trip id="veh177" depart="1090.70" departLane="best" from="5652117#0" to="5637144#1" type="passenger"/>
    <trip id="veh178" depart="1096.87" departLane="best" from="-5652117#1" to="-5652117#0" type="passenger"/>
    <trip id="veh179" depart="1103.03" departLane="best" from="5652117#0" to="5637144#1" type="passenger"/>
    <trip id="veh180" depart="1109.19" departLane="best" from="5637144#0" to="-5652117#0" type="passenger"/>
    <trip id="veh181" depart="1115.35" departLane="best" from="-5637144#2" to="-5652117#0" type="passenger"/>
    <trip id="veh182" depart="1121.51" departLane="best" from="-5652117#1" to="-5652117#0" type="passenger"/>
    <trip id="veh183" depart="1127.68" departLane="best" from="-5652117#1" to="5637144#1" type="passenger"/>
    <trip id="veh184" depart="1133.84" departLane="best" from="-5652117#1" to="-5637144#0" type="passenger"/>
    <trip id="veh185" depart="1140.00" departLane="best" from="5637144#0" to="5637144#1" type="passenger"/>
    <trip id="veh186" depart="1146.16" departLane="best" from="5652117#0" to="5652117#1" type="passenger"/>
    <trip id="veh187" depart="1152.32" departLane="best" from="-5652117#1" to="-5637144#0" type="passenger"/>
    <trip id="veh188" depart="1158.49" departLane="best" from="5652117#0" to="5652117#1" type="passenger"/>
    <trip id="veh189" depart="1164.65" departLane="best" from="-5652117#1" to="5637144#1" type="passenger"/>
    <trip id="veh190" depart="1170.81" departLane="best" from="5637144#0" to="5637144#1" type="passenger"/>
    <trip id="veh191" depart="1176.97" departLane="best" from="-5637144#2" to="-5637144#0" type="passenger"/>
    <trip id="veh192" depart="1183.14" departLane="best" from="-5652117#1" to="-5637144#0" type="passenger"/>
    <trip id="veh193" depart="1189.30" departLane="best" from="-5652117#1" to="5637144#1" type="passenger"/>
    <trip id="veh194" depart="1195.46" departLane="best" from="-5652117#1" to="-5637144#0" type="passenger"/>
    <trip id="veh195" depart="1201.62" departLane="best" from="-5652117#1" to="-5637144#0" type="passenger"/>
    <trip id="veh196" depart="1207.78" departLane="best" from="-5652117#1" to="5637144#1" type="passenger"/>
    <trip id="veh197" depart="1213.95" departLane="best" from="-5637144#2" to="-5652117#0" type="passenger"/>
    <trip id="veh198" depart="1220.11" departLane="best" from="-5637144#2" to="-5652117#0" type="passenger"/>
    <trip id="veh199" depart="1226.27" departLane="best" from="-5637144#2" to="-5652117#0" type="passenger"/>
    <trip id="veh200" depart="1232.43" departLane="best" from="5652117#0" to="5652117#1" type="passenger"/>
    <trip id="veh201" depart="1238.60" departLane="best" from="-5652117#1" to="-5637144#0" type="passenger"/>
    <trip id="veh202" depart="1244.76" departLane="best" from="5637144#0" to="5652117#1" type="passenger"/>
    <trip id="veh203" depart="1250.92" departLane="best" from="5637144#0" to="5652117#1" type="passenger"/>
    <trip id="veh204" depart="1257.08" departLane="best" from="5652117#0" to="-5637144#0" type="passenger"/>
    <trip id="veh205" depart="1263.24" departLane="best" from="-5637144#2" to="-5637144#0" type="passenger"/>
    <trip id="veh206" depart="1269.41" departLane="best" from="5637144#0" to="5652117#1" type="passenger"/>
    <trip id="veh207" depart="1275.57" departLane="best" from="5652117#0" to="5652117#1" type="passenger"/>
    <trip id="veh208" depart="1281.73" departLane="best" from="-5637144#2" to="-5637144#0" type="passenger"/>
    <trip id="veh209" depart="1287.89" departLane="best" from="-5652117#1" to="5637144#1" type="passenger"/>
    <trip id="veh210" depart="1294.05" departLane="best" from="5637144#0" to="5637144#1" type="passenger"/>
    <trip id="veh211" depart="1300.22" departLane="best" from="-5637144#2" to="5652117#1" type="passenger"/>
    <trip id="veh212" depart="1306.38" departLane="best" from="5652117#0" to="5637144#1" type="passenger"/>
    <trip id="veh213" depart="1312.54" departLane="best" from="-5637144#2" to="5652117#1" type="passenger"/>
    <trip id="veh214" depart="1318.70" departLane="best" from="-5652117#1" to="-5652117#0" type="passenger"/>
    <trip id="veh215" depart="1324.87" departLane="best" from="5637144#0" to="-5652117#0" type="passenger"/>
    <trip id="veh216" depart="1331.03" departLane="best" from="5652117#0" to="5652117#1" type="passenger"/>
    <trip id="veh217" depart="1337.19" departLane="best" from="-5637144#2" to="5652117#1" type="passenger"/>
    <trip id="veh218" depart="1343.35" departLane="best" from="5637144#0" to="5652117#1" type="passenger"/>
    <trip id="veh219" depart="1349.51" departLane="best" from="5637144#0" to="-5652117#0" type="passenger"/>
    <trip id="veh220" depart="1355.68" departLane="best" from="5637144#0" to="5652117#1" type="passenger"/>
    <trip id="veh221" depart="1361.84" departLane="best" from="5637144#0" to="-5652117#0" type="passenger"/>
    <trip id="veh222" depart="1368.00" departLane="best" from="-5652117#1" to="5637144#1" type="passenger"/>
    <trip id="veh223" depart="1374.16" departLane="best" from="5652117#0" to="-5637144#0" type="passenger"/>
    <trip id="veh224" depart="1380.32" departLane="best" from="5652117#0" to="-5637144#0" type="passenger"/>
    <trip id="veh225" depart="1386.49" departLane="best" from="-5652117#1" to="5637144#1" type="passenger"/>
    <trip id="veh226" depart="1392.65" departLane="best" from="-5652117#1" to="-5637144#0" type="passenger"/>
    <trip id="veh227" depart="1398.81" departLane="best" from="5652117#0" to="-5637144#0" type="passenger"/>
    <trip id="veh228" depart="1404.97" departLane="best" from="-5637144#2" to="5652117#1" type="passenger"/>
    <trip id="veh229" depart="1411.14" departLane="best" from="5637144#0" to="-5652117#0" type="passenger"/>
    <trip id="veh230" depart="1417.30" departLane="best" from="-5637144#2" to="5652117#1" type="passenger"/>
    <trip id="veh231" depart="1423.46" departLane="best" from="5637144#0" to="5637144#1" type="passenger"/>
    <trip id="veh232" depart="1429.62" departLane="best" from="-5637144#2" to="-5637144#0" type="passenger"/>
    <trip id="veh233" depart="1435.78" departLane="best" from="5637144#0" to="-5652117#0" type="passenger"/>
    <trip id="veh234" depart="1441.95" departLane="best" from="5637144#0" to="-5652117#0" type="passenger"/>
    <trip id="veh235" depart="1448.11" departLane="best" from="5637144#0" to="-5652117#0" type="passenger"/>
    <trip id="veh236" depart="1454.27" departLane="best" from="5637144#0" to="-5652117#0" type="passenger"/>
    <trip id="veh237" depart="1460.43" departLane="best" from="5637144#0" to="-5652117#0" type="passenger"/>
    <trip id="veh238" depart="1466.60" departLane="best" from="-5652117#1" to="-5637144#0" type="passenger"/>
    <trip id="veh239" depart="1472.76" departLane="best" from="-5637144#2" to="-5637144#0" type="passenger"/>
    <trip id="veh240" depart="1478.92" departLane="best" from="5637144#0" to="5652117#1" type="passenger"/>
    <trip id="veh241" depart="1485.08" departLane="best" from="-5637144#2" to="-5637144#0" type="passenger"/>
    <trip id="veh242" depart="1491.24" departLane="best" from="-5652117#1" to="5637144#1" type="passenger"/>
    <trip id="veh243" depart="1497.41" departLane="best" from="5652117#0" to="5637144#1" type="passenger"/>
    <trip id="veh244" depart="1503.57" departLane="best" from="-5652117#1" to="-5637144#0" type="passenger"/>
    <trip id="veh245" depart="1509.73" departLane="best" from="-5637144#2" to="-5637144#0" type="passenger"/>
    <trip id="veh246" depart="1515.89" departLane="best" from="-5637144#2" to="-5637144#0" type="passenger"/>
    <trip id="veh247" depart="1522.05" departLane="best" from="5637144#0" to="-5652117#0" type="passenger"/>
    <trip id="veh248" depart="1528.22" departLane="best" from="5652117#0" to="5637144#1" type="passenger"/>
    <trip id="veh249" depart="1534.38" departLane="best" from="5652117#0" to="5637144#1" type="passenger"/>
    <trip id="veh250" depart="1540.54" departLane="best" from="-5652117#1" to="-5652117#0" type="passenger"/>
    <trip id="veh251" depart="1546.70" departLane="best" from="-5637144#2" to="-5637144#0" type="passenger"/>
    <trip id="veh252" depart="1552.87" departLane="best" from="-5637144#2" to="-5637144#0" type="passenger"/>
    <trip id="veh253" depart="1559.03" departLane="best" from="5637144#0" to="-5652117#0" type="passenger"/>
    <trip id="veh254" depart="1565.19" departLane="best" from="5652117#0" to="-5637144#0" type="passenger"/>
    <trip id="veh255" depart="1571.35" departLane="best" from="5652117#0" to="5637144#1" type="passenger"/>
    <trip id="veh256" depart="1577.51" departLane="best" from="5652117#0" to="-5637144#0" type="passenger"/>
    <trip id="veh257" depart="1583.68" departLane="best" from="5637144#0" to="-5652117#0" type="passenger"/>
    <trip id="veh258" depart="1589.84" departLane="best" from="5637144#0" to="5637144#1" type="passenger"/>
    <trip id="veh259" depart="1596.00" departLane="best" from="5637144#0" to="5652117#1" type="passenger"/>
    <trip id="veh260" depart="1602.16" departLane="best" from="-5637144#2" to="-5637144#0" type="passenger"/>
    <trip id="veh261" depart="1608.33" departLane="best" from="-5637144#2" to="-5637144#0" type="passenger"/>
    <trip id="veh262" depart="1614.49" departLane="best" from="-5637144#2" to="-5652117#0" type="passenger"/>
    <trip id="veh263" depart="1620.65" departLane="best" from="5637144#0" to="-5652117#0" type="passenger"/>
    <trip id="veh264" depart="1626.81" departLane="best" from="5637144#0" to="-5652117#0" type="passenger"/>
    <trip id="veh265" depart="1632.97" departLane="best" from="5637144#0" to="5652117#1" type="passenger"/>
    <trip id="veh266" depart="1639.14" departLane="best" from="5652117#0" to="5637144#1" type="passenger"/>
    <trip id="veh267" depart="1645.30" departLane="best" from="5637144#0" to="5652117#1" type="passenger"/>
    <trip id="veh268" depart="1651.46" departLane="best" from="-5652117#1" to="5637144#1" type="passenger"/>
    <trip id="veh269" depart="1657.62" departLane="best" from="5637144#0" to="5652117#1" type="passenger"/>
    <trip id="veh270" depart="1663.78" departLane="best" from="5652117#0" to="-5637144#0" type="passenger"/>
    <trip id="veh271" depart="1669.95" departLane="best" from="-5637144#2" to="-5652117#0" type="passenger"/>
    <trip id="veh272" depart="1676.11" departLane="best" from="5637144#0" to="5637144#1" type="passenger"/>
    <trip id="veh273" depart="1682.27" departLane="best" from="-5652117#1" to="-5637144#0" type="passenger"/>
    <trip id="veh274" depart="1688.43" departLane="best" from="5637144#0" to="5637144#1" type="passenger"/>
    <trip id="veh275" depart="1694.60" departLane="best" from="5652117#0" to="5637144#1" type="passenger"/>