<?xml version="1.0" encoding="UTF-8"?>

<!-- generated on 11/27/16 18:57:31 by SUMO netconvert Version 0.28.0
<?xml version="1.0" encoding="UTF-8"?>

<configuration xmlns:xsi="http://www.w3.org/2001/XMLSchema-instance" xsi:noNamespaceSchemaLocation="http://sumo.dlr.de/xsd/netconvertConfiguration.xsd">

    <input>
        <type-files value="C:\Program%20Files%20(x86)\DLR\Sumo\data\typemap\osmNetconvert.typ.xml"/>
        <osm-files value="osm_bbox.osm.xml"/>
    </input>

    <output>
        <output-file value="C:\Users\johnldean\Sumo\2016-11-27-18-57-30\osm.net.xml"/>
        <output.street-names value="true"/>
        <output.original-names value="true"/>
    </output>

    <projection>
        <proj.utm value="true"/>
    </projection>

    <tls_building>
        <tls.discard-simple value="true"/>
        <tls.join value="true"/>
        <tls.guess-signals value="true"/>
    </tls_building>

    <ramp_guessing>
        <ramps.guess value="true"/>
    </ramp_guessing>

    <processing>
        <geometry.remove value="true"/>
        <roundabouts.guess value="true"/>
        <junctions.join value="true"/>
        <junctions.corner-detail value="5"/>
    </processing>

    <report>
        <verbose value="true"/>
    </report>

</configuration>
-->

<net version="0.27" junctionCornerDetail="5" xmlns:xsi="http://www.w3.org/2001/XMLSchema-instance" xsi:noNamespaceSchemaLocation="http://sumo.dlr.de/xsd/net_file.xsd">

    <location netOffset="-578456.98,-4754574.67" convBoundary="0.00,0.00,14354.83,8356.22" origBoundary="-74.037841,42.939621,-73.861329,43.014954" projParameter="+proj=utm +zone=18 +ellps=WGS84 +datum=WGS84 +units=m +no_defs"/>

    <type id="highway.bridleway" priority="1" numLanes="1" speed="2.78" allow="pedestrian" oneway="1" width="2.00"/>
    <type id="highway.bus_guideway" priority="1" numLanes="1" speed="8.33" allow="bus" oneway="1"/>
    <type id="highway.cycleway" priority="1" numLanes="1" speed="5.56" allow="bicycle" oneway="0" width="1.00"/>
    <type id="highway.footway" priority="1" numLanes="1" speed="2.78" allow="pedestrian" oneway="1" width="2.00"/>
    <type id="highway.ford" priority="1" numLanes="1" speed="2.78" allow="army" oneway="0"/>
    <type id="highway.living_street" priority="3" numLanes="1" speed="2.78" disallow="tram rail_urban rail rail_electric ship" oneway="0"/>
    <type id="highway.motorway" priority="13" numLanes="2" speed="44.44" allow="private emergency authority army vip passenger hov taxi bus coach delivery truck trailer motorcycle evehicle custom1 custom2" oneway="1"/>
    <type id="highway.motorway_link" priority="12" numLanes="1" speed="22.22" allow="private emergency authority army vip passenger hov taxi bus coach delivery truck trailer motorcycle evehicle custom1 custom2" oneway="1"/>
    <type id="highway.path" priority="1" numLanes="1" speed="2.78" allow="bicycle pedestrian" oneway="1" width="2.00"/>
    <type id="highway.pedestrian" priority="1" numLanes="1" speed="2.78" allow="pedestrian" oneway="1" width="2.00"/>
    <type id="highway.primary" priority="9" numLanes="2" speed="27.78" disallow="tram rail_urban rail rail_electric ship" oneway="0"/>
    <type id="highway.primary_link" priority="8" numLanes="1" speed="22.22" disallow="tram rail_urban rail rail_electric ship" oneway="0"/>
    <type id="highway.raceway" priority="14" numLanes="2" speed="83.33" allow="vip" oneway="0"/>
    <type id="highway.residential" priority="4" numLanes="1" speed="13.89" disallow="tram rail_urban rail rail_electric ship" oneway="0"/>
    <type id="highway.secondary" priority="7" numLanes="2" speed="27.78" disallow="tram rail_urban rail rail_electric ship" oneway="0"/>
    <type id="highway.secondary_link" priority="6" numLanes="1" speed="22.22" disallow="tram rail_urban rail rail_electric ship" oneway="0"/>
    <type id="highway.service" priority="2" numLanes="1" speed="5.56" allow="delivery bicycle pedestrian" oneway="0"/>
    <type id="highway.services" priority="1" numLanes="1" speed="8.33" disallow="tram rail_urban rail rail_electric ship" oneway="0"/>
    <type id="highway.stairs" priority="1" numLanes="1" speed="1.39" allow="pedestrian" oneway="1" width="2.00"/>
    <type id="highway.step" priority="1" numLanes="1" speed="1.39" allow="pedestrian" oneway="1" width="2.00"/>
    <type id="highway.steps" priority="1" numLanes="1" speed="1.39" allow="pedestrian" oneway="1" width="2.00"/>
    <type id="highway.tertiary" priority="6" numLanes="1" speed="22.22" disallow="tram rail_urban rail rail_electric ship" oneway="0"/>
    <type id="highway.tertiary_link" priority="5" numLanes="1" speed="22.22" disallow="tram rail_urban rail rail_electric ship" oneway="0"/>
    <type id="highway.track" priority="1" numLanes="1" speed="5.56" disallow="tram rail_urban rail rail_electric ship" oneway="0"/>
    <type id="highway.trunk" priority="11" numLanes="2" speed="27.78" disallow="tram rail_urban rail rail_electric bicycle pedestrian ship" oneway="0"/>
    <type id="highway.trunk_link" priority="10" numLanes="1" speed="22.22" disallow="tram rail_urban rail rail_electric bicycle pedestrian ship" oneway="0"/>
    <type id="highway.unclassified" priority="5" numLanes="1" speed="13.89" disallow="tram rail_urban rail rail_electric ship" oneway="0"/>
    <type id="highway.unsurfaced" priority="1" numLanes="1" speed="8.33" disallow="tram rail_urban rail rail_electric ship" oneway="0"/>
    <type id="railway.light_rail" priority="15" numLanes="1" speed="27.78" allow="rail_urban" oneway="1"/>
    <type id="railway.preserved" priority="15" numLanes="1" speed="27.78" allow="rail" oneway="1"/>
    <type id="railway.rail" priority="15" numLanes="1" speed="83.33" allow="rail rail_electric" oneway="1"/>
    <type id="railway.subway" priority="15" numLanes="1" speed="27.78" allow="rail_urban" oneway="1"/>
    <type id="railway.tram" priority="15" numLanes="1" speed="13.89" allow="tram" oneway="1"/>

    <edge id=":41898796_0" function="internal">
        <lane id=":41898796_0_0" index="0" disallow="tram rail_urban rail rail_electric ship" speed="24.59" length="4.82" shape="-0.21,3832.91 -1.33,3831.93 -1.64,3831.06 -1.12,3830.29 0.21,3829.63"/>
    </edge>
    <edge id=":41898831_0" function="internal">
        <lane id=":41898831_0_0" index="0" disallow="tram rail_urban rail rail_electric ship" speed="24.59" length="9.80" shape="676.51,3709.12 674.45,3709.83 672.84,3711.28 671.69,3713.46 671.00,3716.37"/>
    </edge>
    <edge id=":41898831_1" function="internal">
        <lane id=":41898831_1_0" index="0" disallow="tram rail_urban rail rail_electric ship" speed="24.59" length="18.63" shape="676.51,3709.12 658.10,3711.92"/>
    </edge>
    <edge id=":41898831_2" function="internal">
        <lane id=":41898831_2_0" index="0" disallow="tram rail_urban rail rail_electric ship" speed="24.59" length="7.40" shape="676.51,3709.12 671.60,3709.31 669.25,3708.50"/>
    </edge>
    <edge id=":41898831_3" function="internal">
        <lane id=":41898831_3_0" index="0" disallow="tram rail_urban rail rail_electric ship" speed="24.59" length="2.41" shape="676.51,3709.12 675.16,3708.49 674.63,3707.74"/>
    </edge>
    <edge id=":41898831_18" function="internal">
        <lane id=":41898831_18_0" index="0" speed="24.59" length="7.88" shape="669.25,3708.50 668.28,3708.17 666.54,3705.69 666.39,3701.86"/>
    </edge>
    <edge id=":41898831_19" function="internal">
        <lane id=":41898831_19_0" index="0" speed="24.59" length="2.41" shape="674.63,3707.74 674.92,3706.86 676.02,3705.86"/>
    </edge>
    <edge id=":41898831_4" function="internal">
        <lane id=":41898831_4_0" index="0" disallow="tram rail_urban rail rail_electric ship" speed="24.59" length="5.39" shape="672.92,3702.79 672.92,3704.34 673.44,3705.36 674.47,3705.87 676.02,3705.86"/>
    </edge>
    <edge id=":41898831_5" function="internal">
        <lane id=":41898831_5_0" index="0" disallow="tram rail_urban rail rail_electric ship" speed="24.59" length="13.72" shape="672.92,3702.79 671.00,3716.37"/>
        <lane id=":41898831_5_1" index="1" disallow="tram rail_urban rail rail_electric ship" speed="24.59" length="13.72" shape="669.65,3702.33 667.73,3715.91"/>
    </edge>
    <edge id=":41898831_7" function="internal">
        <lane id=":41898831_7_0" index="0" disallow="tram rail_urban rail rail_electric ship" speed="24.59" length="5.83" shape="669.65,3702.33 668.51,3705.93 667.20,3707.51"/>
    </edge>
    <edge id=":41898831_8" function="internal">
        <lane id=":41898831_8_0" index="0" disallow="tram rail_urban rail rail_electric ship" speed="24.59" length="2.41" shape="669.65,3702.33 668.66,3703.44 667.79,3703.73"/>
    </edge>
    <edge id=":41898831_20" function="internal">
        <lane id=":41898831_20_0" index="0" speed="24.59" length="10.37" shape="667.20,3707.51 666.20,3708.73 662.73,3710.72 658.10,3711.92"/>
    </edge>
    <edge id=":41898831_21" function="internal">
        <lane id=":41898831_21_0" index="0" speed="24.59" length="2.41" shape="667.79,3703.73 667.03,3703.20 666.39,3701.86"/>
    </edge>
    <edge id=":41898831_9" function="internal">
        <lane id=":41898831_9_0" index="0" disallow="tram rail_urban rail rail_electric ship" speed="24.59" length="9.81" shape="657.60,3708.66 659.67,3707.94 661.27,3706.49 662.43,3704.31 663.12,3701.40"/>
    </edge>
    <edge id=":41898831_10" function="internal">
        <lane id=":41898831_10_0" index="0" disallow="tram rail_urban rail rail_electric ship" speed="24.59" length="18.63" shape="657.60,3708.66 676.02,3705.86"/>
    </edge>
    <edge id=":41898831_11" function="internal">
        <lane id=":41898831_11_0" index="0" disallow="tram rail_urban rail rail_electric ship" speed="24.59" length="7.41" shape="657.60,3708.66 662.51,3708.46 664.87,3709.27"/>
    </edge>
    <edge id=":41898831_12" function="internal">
        <lane id=":41898831_12_0" index="0" disallow="tram rail_urban rail rail_electric ship" speed="24.59" length="2.41" shape="657.60,3708.66 658.95,3709.29 659.48,3710.04"/>
    </edge>
    <edge id=":41898831_22" function="internal">
        <lane id=":41898831_22_0" index="0" speed="24.59" length="7.88" shape="664.87,3709.27 665.83,3709.60 667.57,3712.08 667.73,3715.91"/>
    </edge>
    <edge id=":41898831_23" function="internal">
        <lane id=":41898831_23_0" index="0" speed="24.59" length="2.41" shape="659.48,3710.04 659.20,3710.92 658.10,3711.92"/>
    </edge>
    <edge id=":41898831_13" function="internal">
        <lane id=":41898831_13_0" index="0" disallow="tram rail_urban rail rail_electric ship" speed="24.59" length="5.39" shape="661.19,3714.98 661.19,3713.44 660.68,3712.41 659.64,3711.90 658.10,3711.92"/>
    </edge>
    <edge id=":41898831_14" function="internal">
        <lane id=":41898831_14_0" index="0" disallow="tram rail_urban rail rail_electric ship" speed="24.59" length="13.72" shape="661.19,3714.98 663.12,3701.40"/>
        <lane id=":41898831_14_1" index="1" disallow="tram rail_urban rail rail_electric ship" speed="24.59" length="13.72" shape="664.46,3715.45 666.39,3701.86"/>
    </edge>
    <edge id=":41898831_16" function="internal">
        <lane id=":41898831_16_0" index="0" disallow="tram rail_urban rail rail_electric ship" speed="24.59" length="5.83" shape="664.46,3715.45 665.61,3711.84 666.91,3710.26"/>
    </edge>
    <edge id=":41898831_17" function="internal">
        <lane id=":41898831_17_0" index="0" disallow="tram rail_urban rail rail_electric ship" speed="24.59" length="2.41" shape="664.46,3715.45 665.45,3714.34 666.33,3714.04"/>
    </edge>
    <edge id=":41898831_24" function="internal">
        <lane id=":41898831_24_0" index="0" speed="24.59" length="10.36" shape="666.91,3710.26 667.92,3709.04 671.39,3707.05 676.02,3705.86"/>
    </edge>
    <edge id=":41898831_25" function="internal">
        <lane id=":41898831_25_0" index="0" speed="24.59" length="2.41" shape="666.33,3714.04 667.09,3714.57 667.73,3715.91"/>
    </edge>
    <edge id=":41899209_0" function="internal">
        <lane id=":41899209_0_0" index="0" disallow="tram rail_urban rail rail_electric ship" speed="24.59" length="4.82" shape="14355.02,6854.29 14356.15,6855.25 14356.47,6856.12 14355.96,6856.89 14354.63,6857.57"/>
    </edge>
    <edge id=":42046113_0" function="internal">
        <lane id=":42046113_0_0" index="0" disallow="tram rail_urban rail rail_electric ship" speed="24.59" length="4.82" shape="1410.98,-1.39 1412.47,-1.36 1413.26,-0.89 1413.35,0.03 1412.76,1.39"/>
    </edge>
    <edge id=":42102394_0" function="internal">
        <lane id=":42102394_0_0" index="0" disallow="tram rail_urban rail rail_electric ship" speed="24.59" length="4.82" shape="502.71,8356.43 501.74,8357.55 500.87,8357.86 500.10,8357.35 499.44,8356.02"/>
    </edge>

    <edge id="-5637144#0" from="41898831" to="41898796" name="Amsterdam Road" priority="7" type="highway.secondary" shape="667.06,3708.88 655.54,3710.64 634.19,3715.84 600.64,3726.11 525.59,3755.79 381.45,3815.21 333.79,3832.21 308.99,3839.81 284.95,3845.09 263.30,3848.51 235.46,3851.52 181.22,3852.12 158.49,3850.30 70.85,3840.41 0.00,3831.27">
        <lane id="-5637144#0_0" index="0" disallow="tram rail_urban rail rail_electric ship" speed="24.59" length="684.22" shape="658.10,3711.92 655.86,3712.26 634.63,3717.43 601.18,3727.67 526.21,3757.32 382.04,3816.75 334.31,3833.78 309.41,3841.41 285.26,3846.71 263.52,3850.14 235.56,3853.17 181.16,3853.77 158.33,3851.94 70.65,3842.05 -0.21,3832.91">
            <param key="origId" value="5637144"/>
        </lane>
    </edge>
    <edge id="-5637144#2" from="41899209" to="41898831" name="Amsterdam Road" priority="7" type="highway.secondary" shape="14354.83,6855.93 14208.00,6838.39 14093.82,6822.96 13999.11,6809.46 13859.42,6794.36 13809.94,6788.14 13723.29,6774.53 13687.39,6771.05 13592.35,6757.44 13504.25,6749.15 13230.62,6715.16 13015.72,6690.74 12970.45,6685.69 12867.25,6672.87 12660.23,6644.35 12505.81,6620.52 12479.04,6616.06 12306.31,6590.11 12215.49,6577.69 12129.33,6564.55 11819.62,6520.37 11762.59,6511.17 11653.41,6499.52 11449.52,6474.07 11415.27,6468.18 11370.50,6462.81 11299.30,6452.99 11126.73,6432.41 10996.17,6415.71 10922.58,6407.64 10755.62,6387.58 10578.83,6365.29 10329.02,6334.83 10180.90,6314.36 10093.47,6303.90 10050.67,6298.02 9740.04,6260.24 9609.75,6241.35 9574.21,6234.45 9516.58,6214.83 9477.58,6198.00 9449.54,6184.43 9431.82,6174.09 9380.59,6138.56 9358.82,6119.62 9331.91,6094.51 9282.61,6041.34 9177.72,5917.27 9131.96,5861.26 9099.73,5818.20 9073.19,5777.32 9010.33,5667.78 8949.78,5557.16 8889.83,5449.66 8866.74,5406.05 8837.29,5356.47 8804.17,5305.85 8780.82,5276.23 8741.45,5237.19 8732.41,5229.85 8720.30,5219.92 8654.87,5171.89 8611.84,5144.13 8545.37,5099.86 8427.09,5019.50 8383.99,4984.85 8359.22,4963.99 8337.97,4942.40 8319.89,4927.62 8169.76,4786.33 7997.93,4631.89 7958.14,4599.51 7935.59,4582.79 7871.05,4540.88 7817.99,4512.67 7764.31,4488.11 7689.37,4461.51 7562.91,4421.16 7539.10,4414.53 7496.55,4406.67 7462.76,4401.69 7389.89,4392.78 7278.55,4381.17 7174.41,4368.54 7087.46,4356.68 7047.01,4350.51 6978.60,4342.77 6863.90,4326.57 6802.54,4315.70 6768.00,4305.94 6707.47,4288.08 6541.97,4225.38 6500.22,4211.76 6452.48,4200.95 6422.28,4196.58 6321.78,4185.67 6246.74,4179.74 6060.18,4163.89 5943.73,4150.24 5910.55,4142.61 5850.23,4126.54 5813.36,4114.20 5784.30,4102.85 5757.52,4092.08 5731.01,4079.87 5678.01,4052.12 5633.16,4024.91 5628.55,4021.97 5553.36,3974.96 5470.01,3928.95 5443.26,3915.63 5416.96,3905.42 5363.48,3890.55 5327.50,3884.89 5224.60,3876.64 5066.82,3867.49 5021.02,3864.05 5005.45,3864.08 4893.27,3860.49 4810.16,3861.04 4681.40,3866.47 4461.23,3884.13 4412.07,3889.31 4251.86,3905.81 4183.36,3911.76 4088.29,3923.83 4039.06,3934.90 3966.70,3956.91 3866.00,3989.24 3793.81,4011.03 3732.77,4020.96 3680.37,4024.44 3636.68,4022.03 3576.07,4016.53 3200.24,3971.95 2991.59,3947.14 2889.97,3934.38 2812.05,3923.35 2472.74,3885.46 2418.69,3876.71 2389.94,3873.71 2314.55,3869.93 2247.43,3869.59 2133.72,3871.36 1838.66,3878.67 1811.26,3877.90 1740.64,3877.74 1679.82,3875.70 1604.30,3869.37 1571.80,3865.33 1507.35,3853.36 1446.09,3840.76 1345.52,3821.04 1269.22,3804.27 1154.00,3781.05 1000.13,3751.39 922.36,3734.38 847.10,3719.07 769.04,3705.84 718.09,3703.81 689.52,3705.48 667.06,3708.88">
        <lane id="-5637144#2_0" index="0" disallow="tram rail_urban rail rail_electric ship" speed="24.59" length="14617.73" shape="14354.63,6857.57 14207.79,6840.02 14093.60,6824.59 13998.91,6811.10 13859.23,6796.00 13809.70,6789.77 13723.09,6776.17 13687.19,6772.69 13592.16,6759.08 13504.07,6750.79 13230.42,6716.80 13015.53,6692.38 12970.26,6687.33 12867.04,6674.51 12659.99,6645.98 12505.55,6622.15 12478.79,6617.69 12306.07,6591.74 12215.25,6579.32 12129.08,6566.19 11819.37,6522.00 11762.37,6512.81 11653.22,6501.16 11449.28,6475.70 11415.04,6469.81 11370.29,6464.45 11299.09,6454.63 11126.52,6434.05 10995.98,6417.35 10922.39,6409.28 10755.42,6389.22 10578.63,6366.92 10328.81,6336.47 10180.69,6316.00 10093.26,6305.54 10050.45,6299.65 9739.82,6261.88 9609.48,6242.98 9573.79,6236.05 9515.98,6216.37 9476.89,6199.50 9448.77,6185.88 9430.93,6175.48 9379.57,6139.86 9357.71,6120.85 9330.74,6095.67 9281.37,6042.43 9176.45,5918.32 9130.66,5862.28 9098.38,5819.14 9071.78,5778.18 9008.90,5668.59 8948.33,5557.96 8888.38,5450.45 8865.30,5406.86 8835.89,5357.35 8802.83,5306.81 8779.59,5277.33 8740.34,5238.42 8731.36,5231.13 8719.29,5221.23 8653.93,5173.25 8610.93,5145.51 8544.45,5101.23 8426.11,5020.83 8382.94,4986.13 8358.10,4965.21 8336.85,4943.62 8318.80,4928.86 8168.64,4787.55 7996.86,4633.14 7957.12,4600.81 7934.65,4584.14 7870.21,4542.30 7817.26,4514.15 7763.69,4489.64 7688.85,4463.08 7562.44,4422.74 7538.73,4416.14 7496.27,4408.30 7462.54,4403.32 7389.70,4394.42 7278.37,4382.81 7174.20,4370.17 7087.22,4358.31 7046.79,4352.14 6978.39,4344.40 6863.64,4328.20 6802.17,4317.31 6767.55,4307.52 6706.94,4289.65 6541.42,4226.94 6499.78,4213.35 6452.18,4202.57 6422.07,4198.21 6321.62,4187.31 6246.61,4181.39 6060.01,4165.53 5943.45,4151.87 5910.15,4144.21 5849.76,4128.12 5812.80,4115.75 5783.70,4104.38 5756.87,4093.60 5730.28,4081.35 5677.20,4053.56 5632.29,4026.31 5627.67,4023.36 5552.53,3976.38 5469.24,3930.41 5442.59,3917.14 5416.44,3906.99 5363.13,3892.17 5327.30,3886.53 5224.48,3878.28 5066.71,3869.14 5020.96,3865.70 5005.42,3865.73 4893.25,3862.14 4810.20,3862.69 4681.50,3868.12 4461.38,3885.77 4412.24,3890.95 4252.01,3907.45 4183.54,3913.40 4088.57,3925.46 4039.48,3936.50 3967.19,3958.48 3866.49,3990.82 3794.18,4012.64 3732.95,4022.60 3680.38,4026.10 3636.56,4023.68 3575.90,4018.17 3200.04,3973.58 2991.39,3948.78 2889.75,3936.02 2811.84,3924.99 2472.52,3887.10 2418.48,3878.35 2389.81,3875.35 2314.50,3871.58 2247.44,3871.24 2133.76,3873.01 1838.65,3880.32 1811.24,3879.55 1740.61,3879.39 1679.73,3877.35 1604.13,3871.01 1571.55,3866.96 1507.04,3854.98 1445.76,3842.38 1345.18,3822.66 1268.88,3805.88 1153.68,3782.67 999.79,3753.00 922.02,3736.00 846.79,3720.70 768.87,3707.49 718.10,3705.46 689.70,3707.12 676.51,3709.12">
            <param key="origId" value="5637144"/>
        </lane>
    </edge>
    <edge id="-5652117#0" from="41898831" to="42046113" name="Sacandaga Road" priority="7" type="highway.secondary" shape="667.06,3708.88 682.77,3598.11 709.46,3405.50 716.07,3363.15 723.82,3299.60 739.04,3203.49 740.62,3193.40 770.67,2951.07 794.39,2775.87 809.39,2670.86 870.10,2287.51 881.90,2212.90 886.58,2182.19 921.21,1945.24 966.31,1608.58 1016.73,1262.87 1029.66,1168.28 1043.84,1064.04 1071.94,864.34 1106.49,586.98 1124.30,436.80 1138.37,328.35 1146.54,285.35 1151.30,269.19 1163.59,236.68 1186.31,190.96 1204.80,165.52 1209.54,158.36 1247.65,115.71 1259.70,103.52 1282.95,83.24 1298.17,72.65 1411.87,0.00">
        <lane id="-5652117#0_0" index="0" disallow="tram rail_urban rail rail_electric ship" speed="24.59" length="3854.57" shape="663.12,3701.40 677.87,3597.43 704.57,3404.78 711.17,3362.47 718.91,3298.92 734.15,3202.71 735.72,3192.71 765.76,2950.44 789.48,2775.18 804.49,2670.12 865.21,2286.73 877.01,2212.14 881.68,2181.46 916.31,1944.56 961.41,1607.89 1011.83,1262.17 1024.76,1167.61 1038.94,1063.37 1067.03,863.69 1101.57,586.38 1119.39,436.19 1133.48,327.56 1141.72,284.18 1146.60,267.61 1159.04,234.70 1182.06,188.39 1200.73,162.70 1205.61,155.33 1244.04,112.31 1256.31,99.91 1279.90,79.33 1295.42,68.53 1409.20,-4.17">
            <param key="origId" value="5652117"/>
        </lane>
        <lane id="-5652117#0_1" index="1" disallow="tram rail_urban rail rail_electric ship" speed="24.59" length="3854.57" shape="666.39,3701.86 681.14,3597.88 707.83,3405.26 714.43,3362.93 722.18,3299.38 737.41,3203.23 738.99,3193.17 769.03,2950.86 792.75,2775.64 807.75,2670.62 868.47,2287.25 880.27,2212.64 884.94,2181.94 919.58,1945.02 964.68,1608.35 1015.10,1262.64 1028.03,1168.06 1042.21,1063.82 1070.30,864.13 1104.85,586.78 1122.66,436.60 1136.74,328.09 1144.93,284.96 1149.73,268.66 1162.07,236.02 1184.90,190.10 1203.45,164.58 1208.23,157.35 1246.45,114.58 1258.57,102.31 1281.93,81.94 1297.25,71.27 1410.98,-1.39">
            <param key="origId" value="5652117"/>
        </lane>
    </edge>
    <edge id="-5652117#1" from="42102394" to="41898831" name="Sacandaga Road" priority="7" type="highway.secondary" shape="501.07,8356.22 518.80,8211.82 558.68,7898.86 610.24,7471.19 643.65,7257.63 667.23,7047.14 733.59,6559.78 772.53,6294.56 809.24,6045.98 850.81,5743.92 851.29,5681.07 840.40,5614.64 705.91,5167.05 668.87,5055.89 624.31,4946.09 574.53,4843.89 555.43,4796.36 540.31,4735.43 536.87,4666.20 547.70,4554.48 620.73,4034.66 651.16,3821.21 667.06,3708.88">
        <lane id="-5652117#1_0" index="0" disallow="tram rail_urban rail rail_electric ship" speed="24.59" length="4725.43" shape="496.16,8355.62 513.88,8211.21 553.77,7898.25 605.34,7470.51 638.74,7256.97 662.31,7046.53 728.69,6559.08 767.63,6293.84 804.34,6045.28 845.86,5743.57 846.34,5681.45 835.57,5615.75 701.19,5168.54 664.23,5057.60 619.79,4948.10 570.00,4845.90 550.71,4797.88 535.39,4736.15 531.91,4666.08 542.78,4553.90 615.82,4033.96 646.26,3820.51 661.19,3714.98">
            <param key="origId" value="5652117"/>
        </lane>
        <lane id="-5652117#1_1" index="1" disallow="tram rail_urban rail rail_electric ship" speed="24.59" length="4725.43" shape="499.44,8356.02 517.16,8211.62 557.04,7898.66 608.60,7470.96 642.01,7257.41 665.59,7046.94 731.96,6559.55 770.90,6294.32 807.61,6045.75 849.16,5743.80 849.64,5681.20 838.79,5615.01 704.34,5167.55 667.32,5056.46 622.81,4946.76 573.02,4844.56 553.85,4796.86 538.67,4735.67 535.21,4666.16 546.06,4554.29 619.09,4034.42 649.53,3820.98 664.46,3715.45">
            <param key="origId" value="5652117"/>
        </lane>
    </edge>
    <edge id="5637144#0" from="41898796" to="41898831" name="Amsterdam Road" priority="7" type="highway.secondary" shape="0.00,3831.27 70.85,3840.41 158.49,3850.30 181.22,3852.12 235.46,3851.52 263.30,3848.51 284.95,3845.09 308.99,3839.81 333.79,3832.21 381.45,3815.21 525.59,3755.79 600.64,3726.11 634.19,3715.84 655.54,3710.64 667.06,3708.88">
        <lane id="5637144#0_0" index="0" disallow="tram rail_urban rail rail_electric ship" speed="24.59" length="683.30" shape="0.21,3829.63 71.05,3838.77 158.64,3848.66 181.27,3850.47 235.36,3849.87 263.09,3846.87 284.65,3843.47 308.57,3838.22 333.27,3830.65 380.86,3813.67 524.97,3754.26 600.09,3724.55 633.75,3714.24 655.22,3709.02 657.60,3708.66">
            <param key="origId" value="5637144"/>
        </lane>
    </edge>
    <edge id="5637144#1" from="41898831" to="41899209" name="Amsterdam Road" priority="7" type="highway.secondary" shape="667.06,3708.88 689.52,3705.48 718.09,3703.81 769.04,3705.84 847.10,3719.07 922.36,3734.38 1000.13,3751.39 1154.00,3781.05 1269.22,3804.27 1345.52,3821.04 1446.09,3840.76 1507.35,3853.36 1571.80,3865.33 1604.30,3869.37 1679.82,3875.70 1740.64,3877.74 1811.26,3877.90 1838.66,3878.67 2133.72,3871.36 2247.43,3869.59 2314.55,3869.93 2389.94,3873.71 2418.69,3876.71 2472.74,3885.46 2812.05,3923.35 2889.97,3934.38 2991.59,3947.14 3200.24,3971.95 3576.07,4016.53 3636.68,4022.03 3680.37,4024.44 3732.77,4020.96 3793.81,4011.03 3866.00,3989.24 3966.70,3956.91 4039.06,3934.90 4088.29,3923.83 4183.36,3911.76 4251.86,3905.81 4412.07,3889.31 4461.23,3884.13 4681.40,3866.47 4810.16,3861.04 4893.27,3860.49 5005.45,3864.08 5021.02,3864.05 5066.82,3867.49 5224.60,3876.64 5327.50,3884.89 5363.48,3890.55 5416.96,3905.42 5443.26,3915.63 5470.01,3928.95 5553.36,3974.96 5628.55,4021.97 5633.16,4024.91 5678.01,4052.12 5731.01,4079.87 5757.52,4092.08 5784.30,4102.85 5813.36,4114.20 5850.23,4126.54 5910.55,4142.61 5943.73,4150.24 6060.18,4163.89 6246.74,4179.74 6321.78,4185.67 6422.28,4196.58 6452.48,4200.95 6500.22,4211.76 6541.97,4225.38 6707.47,4288.08 6768.00,4305.94 6802.54,4315.70 6863.90,4326.57 6978.60,4342.77 7047.01,4350.51 7087.46,4356.68 7174.41,4368.54 7278.55,4381.17 7389.89,4392.78 7462.76,4401.69 7496.55,4406.67 7539.10,4414.53 7562.91,4421.16 7689.37,4461.51 7764.31,4488.11 7817.99,4512.67 7871.05,4540.88 7935.59,4582.79 7958.14,4599.51 7997.93,4631.89 8169.76,4786.33 8319.89,4927.62 8337.97,4942.40 8359.22,4963.99 8383.99,4984.85 8427.09,5019.50 8545.37,5099.86 8611.84,5144.13 8654.87,5171.89 8720.30,5219.92 8732.41,5229.85 8741.45,5237.19 8780.82,5276.23 8804.17,5305.85 8837.29,5356.47 8866.74,5406.05 8889.83,5449.66 8949.78,5557.16 9010.33,5667.78 9073.19,5777.32 9099.73,5818.20 9131.96,5861.26 9177.72,5917.27 9282.61,6041.34 9331.91,6094.51 9358.82,6119.62 9380.59,6138.56 9431.82,6174.09 9449.54,6184.43 9477.58,6198.00 9516.58,6214.83 9574.21,6234.45 9609.75,6241.35 9740.04,6260.24 10050.67,6298.02 10093.47,6303.90 10180.90,6314.36 10329.02,6334.83 10578.83,6365.29 10755.62,6387.58 10922.58,6407.64 10996.17,6415.71 11126.73,6432.41 11299.30,6452.99 11370.50,6462.81 11415.27,6468.18 11449.52,6474.07 11653.41,6499.52 11762.59,6511.17 11819.62,6520.37 12129.33,6564.55 12215.49,6577.69 12306.31,6590.11 12479.04,6616.06 12505.81,6620.52 12660.23,6644.35 12867.25,6672.87 12970.45,6685.69 13015.72,6690.74 13230.62,6715.16 13504.25,6749.15 13592.35,6757.44 13687.39,6771.05 13723.29,6774.53 13809.94,6788.14 13859.42,6794.36 13999.11,6809.46 14093.82,6822.96 14208.00,6838.39 14354.83,6855.93">
        <lane id="5637144#1_0" index="0" disallow="tram rail_urban rail rail_electric ship" speed="24.59" length="14618.62" shape="676.02,3705.86 689.35,3703.84 718.07,3702.16 769.21,3704.20 847.40,3717.45 922.70,3732.77 1000.46,3749.77 1154.32,3779.43 1269.56,3802.66 1345.85,3819.42 1446.41,3839.14 1507.67,3851.74 1572.06,3863.70 1604.47,3867.73 1679.92,3874.05 1740.67,3876.09 1811.29,3876.25 1838.66,3877.02 2133.69,3869.71 2247.42,3867.94 2314.59,3868.28 2390.07,3872.06 2418.91,3875.08 2472.97,3883.82 2812.26,3921.71 2890.18,3932.75 2991.79,3945.50 3200.43,3970.31 3576.25,4014.89 3636.80,4020.38 3680.36,4022.79 3732.58,4019.32 3793.43,4009.42 3865.51,3987.67 3966.21,3955.33 4038.64,3933.30 4088.00,3922.20 4183.19,3910.12 4251.70,3904.17 4411.90,3887.67 4461.07,3882.49 4681.29,3864.83 4810.12,3859.39 4893.29,3858.84 5005.47,3862.43 5021.08,3862.40 5066.92,3865.85 5224.71,3874.99 5327.69,3883.25 5363.83,3888.94 5417.48,3903.86 5443.93,3914.12 5470.77,3927.49 5554.20,3973.53 5629.43,4020.57 5634.04,4023.51 5678.82,4050.68 5731.73,4078.39 5758.18,4090.57 5784.91,4101.32 5813.92,4112.65 5850.71,4124.96 5910.95,4141.01 5944.01,4148.61 6060.35,4162.25 6246.88,4178.10 6321.93,4184.03 6422.48,4194.94 6452.78,4199.33 6500.66,4210.17 6542.51,4223.83 6708.00,4286.52 6768.46,4304.35 6802.91,4314.09 6864.16,4324.94 6978.81,4341.13 7047.22,4348.87 7087.70,4355.04 7174.62,4366.90 7278.74,4379.53 7390.07,4391.14 7462.98,4400.05 7496.82,4405.04 7539.47,4412.92 7563.38,4419.58 7689.90,4459.95 7764.93,4486.58 7818.72,4511.19 7871.88,4539.46 7936.54,4581.43 7959.15,4598.21 7999.00,4630.63 8170.87,4785.12 8320.98,4926.38 8339.08,4941.18 8360.34,4962.78 8385.04,4983.58 8428.08,5018.17 8546.29,5098.49 8612.74,5142.75 8655.80,5170.53 8721.32,5218.62 8733.45,5228.57 8742.55,5235.96 8782.06,5275.13 8805.52,5304.88 8838.69,5355.60 8868.18,5405.24 8891.28,5448.87 8951.22,5556.36 9011.77,5666.97 9074.59,5776.46 9101.09,5817.25 9133.26,5860.24 9178.99,5916.21 9283.84,6040.25 9333.08,6093.34 9359.92,6118.39 9381.60,6137.25 9432.71,6172.70 9450.32,6182.97 9478.27,6196.50 9517.17,6213.29 9574.64,6232.86 9610.03,6239.73 9740.26,6258.61 10050.88,6296.38 10093.68,6302.27 10181.11,6312.73 10329.23,6333.19 10579.04,6363.65 10755.83,6385.94 10922.77,6406.00 10996.37,6414.07 11126.93,6430.77 11299.51,6451.36 11370.72,6461.18 11415.51,6466.54 11449.76,6472.44 11653.60,6497.88 11762.81,6509.54 11819.86,6518.74 12129.57,6562.92 12215.72,6576.06 12306.54,6588.48 12479.30,6614.43 12506.07,6618.90 12660.47,6642.71 12867.47,6671.24 12970.65,6684.05 13015.90,6689.10 13230.81,6713.52 13504.43,6747.51 13592.54,6755.80 13687.58,6769.41 13723.50,6772.90 13810.17,6786.51 13859.61,6792.72 13999.32,6807.83 14094.05,6821.33 14208.20,6836.75 14355.02,6854.29">
            <param key="origId" value="5637144"/>
        </lane>
    </edge>
    <edge id="5652117#0" from="42046113" to="41898831" name="Sacandaga Road" priority="7" type="highway.secondary" shape="1411.87,0.00 1298.17,72.65 1282.95,83.24 1259.70,103.52 1247.65,115.71 1209.54,158.36 1204.80,165.52 1186.31,190.96 1163.59,236.68 1151.30,269.19 1146.54,285.35 1138.37,328.35 1124.30,436.80 1106.49,586.98 1071.94,864.34 1043.84,1064.04 1029.66,1168.28 1016.73,1262.87 966.31,1608.58 921.21,1945.24 886.58,2182.19 881.90,2212.90 870.10,2287.51 809.39,2670.86 794.39,2775.87 770.67,2951.07 740.62,3193.40 739.04,3203.49 723.82,3299.60 716.07,3363.15 709.46,3405.50 682.77,3598.11 667.06,3708.88">