<?xml version="1.0" encoding="UTF-8"?>

<!-- generated on 11/27/16 13:35:32 by SUMO polyconvert Version 0.28.0
<?xml version="1.0" encoding="UTF-8"?>

<configuration xmlns:xsi="http://www.w3.org/2001/XMLSchema-instance" xsi:noNamespaceSchemaLocation="http://sumo.dlr.de/xsd/polyconvertConfiguration.xsd">

    <input>
        <net-file value="C:\Users\johnldean\Sumo\2016-11-27-13-35-30\osm.net.xml"/>
        <osm-files value="osm_bbox.osm.xml"/>
        <osm.keep-full-type value="true"/>
        <type-file value="C:\Program%20Files%20(x86)\DLR\Sumo\data\typemap\osmPolyconvert.typ.xml"/>
    </input>

    <output>
        <output-file value="C:\Users\johnldean\Sumo\2016-11-27-13-35-30\osm.poly.xml"/>
    </output>

    <processing>
        <poi-layer-offset value="5"/>
    </processing>

    <report>
        <verbose value="true"/>
    </report>

</configuration>
-->

<additional xmlns:xsi="http://www.w3.org/2001/XMLSchema-instance" xsi:noNamespaceSchemaLocation="http://sumo.dlr.de/xsd/additional_file.xsd">
    <location netOffset="-573742.09,-4141791.05" convBoundary="-1806.13,-116.80,1503.75,2596.14" origBoundary="-122.186929,37.418986,-122.149535,37.443399" projParameter="+proj=utm +zone=10 +ellps=WGS84 +datum=WGS84 +units=m +no_defs"/>

    <poly id="131464975" type="building.yes" color="255,230,230" fill="1" layer="-1.00" shape="705.84,507.89 680.84,515.80 683.36,523.72 709.62,515.42 708.99,513.46 722.66,509.14 719.93,500.56 705.00,505.28 705.84,507.89"/>
    <poly id="131464977" type="building.yes" color="255,230,230" fill="1" layer="-1.00" shape="588.67,571.14 604.03,609.29 621.46,602.33 606.10,564.18 603.71,565.13 601.40,558.46 603.62,557.82 590.45,512.09 572.66,517.17 585.82,562.90 588.67,571.14"/>
    <poly id="131464983" type="building.yes" color="255,230,230" fill="1" layer="-1.00" shape="621.86,520.27 626.50,508.24 617.89,504.95 613.09,517.39 616.11,518.54 606.50,543.42 615.35,546.82 625.12,521.53 621.86,520.27"/>
    <poly id="131464984" type="building.yes" color="255,230,230" fill="1" layer="-1.00" shape="633.43,556.77 624.44,546.23 618.30,551.43 627.91,562.68 629.60,561.25 645.45,579.80 652.20,574.08 635.73,554.81 633.43,556.77"/>
    <poly id="131464987" type="building.yes" color="255,230,230" fill="1" layer="-1.00" shape="648.12,513.78 647.21,517.27 673.41,524.01 675.52,515.92 649.43,509.20 650.37,505.55 637.49,502.23 635.35,510.49 648.12,513.78"/>
    <poly id="160069740" type="leisure.pitch" color="207,245,201" fill="1" layer="-2.00" shape="458.82,547.69 474.09,543.49 466.30,515.48 451.03,519.69 458.82,547.69"/>
    <poly id="160069740#1" type="sport.baseball" color="79,230,125" fill="1" layer="-2.00" shape="458.82,547.69 474.09,543.49 466.30,515.48 451.03,519.69 458.82,547.69"/>
    <poly id="160069741" type="building.yes" color="255,230,230" fill="1" layer="-1.00" shape="599.19,325.69 625.78,365.78 638.80,357.22 663.43,394.37 679.23,383.97 647.51,336.13 634.01,345.00 614.52,315.61 599.19,325.69"/>
    <poly id="161005359" type="building.yes" color="255,230,230" fill="1" layer="-1.00" shape="437.71,225.55 424.23,230.73 432.80,252.83 462.85,241.27 454.27,219.17 441.39,224.13 438.78,217.39 451.89,212.34 446.23,197.78 415.71,209.52 421.36,224.08 435.09,218.80 437.71,225.55"/>
    <poly id="161005375" type="leisure.pitch" color="207,245,201" fill="1" layer="-2.00" shape="335.90,242.44 356.04,234.76 351.53,223.03 331.40,230.71 335.90,242.44"/>
    <poly id="161005375#1" type="sport.basketball" color="79,230,125" fill="1" layer="-2.00" shape="335.90,242.44 356.04,234.76 351.53,223.03 331.40,230.71 335.90,242.44"/>
    <poly id="161272520" type="building.yes" color="255,230,230" fill="1" layer="-1.00" shape="600.72,260.35 612.63,247.16 615.80,249.99 622.02,243.10 606.36,229.09 602.87,232.97 600.66,230.98 597.84,234.10 603.23,238.92 591.34,252.09 585.54,246.90 582.45,250.33 584.65,252.31 581.65,255.64 597.52,269.84 603.69,263.01 600.72,260.35"/>
    <poly id="161272522" type="building.yes" color="255,230,230" fill="1" layer="-1.00" shape="521.33,322.87 523.94,325.26 529.20,319.59 503.79,296.23 498.53,301.90 501.05,304.23 499.06,306.39 504.27,311.18 506.27,309.02 509.05,311.58 507.05,313.75 511.32,317.67 513.33,315.52 516.13,318.09 514.11,320.28 519.31,325.06 521.33,322.87"/>
    <poly id="161272533" type="building.yes" color="255,230,230" fill="1" layer="-1.00" shape="566.85,229.86 578.83,216.74 581.92,219.54 588.15,212.72 572.57,198.61 569.00,202.51 566.82,200.54 564.00,203.63 569.41,208.52 557.44,221.62 551.70,216.42 549.15,219.21 551.44,221.28 547.87,225.18 563.60,239.42 569.85,232.58 566.85,229.86"/>
    <poly id="161272541" type="building.yes" color="255,230,230" fill="1" layer="-1.00" shape="582.39,281.54 592.77,270.25 575.68,254.68 574.00,256.51 571.04,253.82 572.76,251.95 568.39,247.98 566.67,249.86 564.07,247.49 565.81,245.60 560.41,240.67 558.65,242.57 555.78,239.96 550.50,245.70 576.58,269.45 578.32,267.54 582.54,271.39 577.39,276.99 582.39,281.54"/>
    <poly id="161272545" type="building.yes" color="255,230,230" fill="1" layer="-1.00" shape="749.69,371.51 760.20,364.95 756.87,359.68 770.86,350.93 762.69,337.98 758.49,340.60 749.84,326.89 736.06,335.51 733.32,331.16 722.16,338.14 725.18,342.94 709.19,352.93 706.85,349.21 694.76,356.77 697.69,361.41 683.68,370.18 691.22,382.14 703.49,374.46 700.29,369.39 715.91,359.61 719.08,364.63 731.33,356.97 728.05,351.76 741.66,343.25 744.48,347.71 749.84,344.35 753.76,350.56 741.36,358.31 749.69,371.51"/>
    <poly id="166890790" type="building.yes" color="255,230,230" fill="1" layer="-1.00" shape="510.29,288.42 514.17,291.88 520.97,284.33 508.22,272.93 496.22,286.25 503.41,292.67 507.35,288.30 505.78,286.89 508.72,283.63 511.98,286.55 510.29,288.42"/>
    <poly id="166890791" type="building.yes" color="255,230,230" fill="1" layer="-1.00" shape="543.25,264.61 547.13,268.07 553.93,260.52 541.17,249.13 529.18,262.44 536.37,268.87 540.30,264.50 538.73,263.10 541.68,259.83 544.94,262.74 543.25,264.61"/>
    <poly id="166890793" type="building.yes" color="255,230,230" fill="1" layer="-1.00" shape="542.84,301.39 550.17,308.06 561.74,295.43 549.32,284.14 542.61,291.46 546.32,294.84 547.92,293.09 550.95,295.85 547.92,299.15 546.27,297.65 542.84,301.39"/>
    <poly id="166890795" type="building.yes" color="255,230,230" fill="1" layer="-1.00" shape="532.02,318.79 539.35,325.46 550.93,312.84 538.51,301.54 531.79,308.87 535.50,312.24 537.11,310.50 540.13,313.25 537.10,316.55 535.46,315.05 532.02,318.79"/>
    <poly id="166890797" type="building.yes" color="255,230,230" fill="1" layer="-1.00" shape="527.01,275.95 530.88,279.41 537.69,271.87 524.93,260.48 512.94,273.78 520.12,280.21 524.06,275.84 522.49,274.43 525.44,271.17 528.69,274.08 527.01,275.95"/>
    <poly id="166890798" type="building.yes" color="255,230,230" fill="1" layer="-1.00" shape="553.68,283.94 561.01,290.61 572.59,277.99 560.17,266.69 553.45,274.01 557.17,277.39 558.78,275.65 561.79,278.40 558.77,281.70 557.12,280.20 553.68,283.94"/>
    <poly id="166891350" type="building.yes" color="255,230,230" fill="1" layer="-1.00" shape="734.41,320.07 748.54,311.53 751.53,316.42 764.09,308.82 756.55,296.47 742.66,304.87 739.11,299.07 734.21,302.03 725.86,288.32 719.75,292.01 711.98,279.29 698.52,287.42 705.88,299.48 713.54,294.86 721.64,308.14 725.66,305.71 734.41,320.07"/>
    <poly id="166891351" type="building.yes" color="255,230,230" fill="1" layer="-1.00" shape="680.60,226.94 687.98,238.97 703.80,229.37 708.63,237.25 701.59,241.52 704.59,246.43 691.03,254.67 694.84,260.89 680.91,269.36 688.13,281.14 700.23,273.79 697.24,268.91 710.31,260.97 706.22,254.31 721.53,245.02 712.63,230.49 717.72,227.40 710.24,215.18 695.57,224.08 692.79,219.53 680.60,226.94"/>
    <poly id="166891352" type="building.yes" color="255,230,230" fill="1" layer="-1.00" shape="634.66,272.80 621.33,279.75 624.56,285.90 611.04,292.93 618.41,306.97 625.68,303.18 633.10,317.32 646.90,310.13 648.98,314.08 663.52,306.50 666.62,312.40 681.91,304.44 680.21,301.19 691.69,295.22 685.27,283.01 673.65,289.06 674.72,291.11 660.66,298.44 658.30,293.94 644.65,301.05 642.54,297.03 633.36,301.81 628.75,293.04 641.74,286.28 634.66,272.80"/>
    <poly id="182440066" type="building.yes" color="255,230,230" fill="1" layer="-1.00" shape="376.45,476.18 375.26,471.94 338.03,481.29 341.57,495.24 378.88,485.87 377.60,481.17 376.45,476.18"/>
    <poly id="182440067" type="building.yes" color="255,230,230" fill="1" layer="-1.00" shape="384.97,479.48 386.12,483.92 400.35,480.34 390.92,443.13 401.10,440.57 399.75,435.25 398.49,435.56 396.45,427.54 388.40,429.56 390.28,436.98 387.61,437.65 388.23,440.11 373.36,443.84 371.99,438.44 357.23,442.15 360.66,455.70 377.95,451.36 383.82,474.49 384.97,479.48"/>
    <poly id="182440068" type="building.yes" color="255,230,230" fill="1" layer="-1.00" shape="358.46,376.27 357.15,371.31 371.31,367.60 380.87,403.80 389.78,401.47 393.21,414.45 385.43,416.49 383.65,409.75 380.51,410.58 380.07,408.92 365.37,412.77 366.73,417.90 351.50,421.89 347.93,408.37 365.70,403.71 359.71,381.00 358.46,376.27"/>
    <poly id="182440069" type="building.yes" color="255,230,230" fill="1" layer="-1.00" shape="352.00,383.03 353.19,387.50 316.14,397.27 312.47,383.45 311.63,380.30 306.14,381.74 303.78,372.89 316.77,369.47 318.97,377.74 317.66,378.09 318.66,381.84 349.53,373.72 350.74,378.29 352.00,383.03"/>
    <poly id="182440070" type="building.dormitory" color="255,230,230" fill="1" layer="-1.00" shape="224.47,416.13 223.34,411.36 222.06,406.82 207.61,410.68 218.57,451.33 234.21,447.16 235.54,452.09 251.12,447.93 247.52,434.59 230.71,439.08 224.47,416.13"/>
    <poly id="182440071" type="building.dormitory" color="255,230,230" fill="1" layer="-1.00" shape="256.00,506.92 257.29,511.88 258.72,517.29 295.67,507.59 291.82,493.06 296.92,491.73 292.41,474.67 278.95,478.21 283.48,495.30 254.91,502.81 256.00,506.92"/>
    <poly id="182440073" type="building.yes" color="255,230,230" fill="1" layer="-1.00" shape="354.47,382.38 354.83,383.80 358.07,382.95 357.69,381.53 359.71,381.00 358.46,376.27 350.74,378.29 352.00,383.03 354.47,382.38"/>
    <poly id="182440074" type="building.yes" color="255,230,230" fill="1" layer="-1.00" shape="248.55,508.85 249.93,514.11 252.01,513.58 252.50,515.44 255.37,514.69 254.80,512.54 257.29,511.88 256.00,506.92 248.55,508.85"/>
    <poly id="232805713" type="building.yes" color="255,230,230" fill="1" layer="-1.00" shape="383.90,574.98 385.86,574.22 389.46,587.35 388.30,587.67 391.30,598.79 404.52,595.36 401.70,584.13 400.63,584.34 397.89,574.66 411.72,571.24 414.46,581.25 422.71,578.99 420.15,569.20 433.90,565.33 436.29,575.12 435.22,575.33 438.04,586.78 451.43,583.24 448.52,572.12 447.37,572.44 444.13,559.21 446.34,558.56 445.06,553.56 442.67,554.20 439.24,541.08 440.57,540.87 440.23,539.65 443.34,538.68 442.83,536.12 443.09,536.12 442.42,532.23 441.89,532.34 441.02,529.89 438.01,530.75 437.75,529.53 424.27,532.85 427.18,544.30 428.34,543.87 430.81,553.65 417.51,557.09 417.09,554.97 407.68,557.55 407.93,559.55 394.89,562.88 392.33,553.20 393.57,552.88 390.57,541.42 377.36,544.97 380.53,556.42 381.50,556.21 384.75,568.89 382.53,569.65 383.90,574.98"/>
    <poly id="232805719" type="building.dormitory" color="255,230,230" fill="1" layer="-1.00" shape="503.16,587.58 504.02,590.81 518.56,587.17 516.00,577.16 512.80,577.90 511.17,572.01 510.93,569.34 513.95,568.48 514.59,565.83 513.10,564.26 509.73,564.90 507.24,556.55 508.04,556.34 505.47,546.33 509.64,545.26 508.02,538.92 503.05,540.32 502.88,539.54 499.69,540.29 499.77,541.17 497.55,541.71 497.47,540.93 489.48,543.86 491.11,550.20 495.54,549.01 497.93,558.91 499.08,558.59 500.70,565.26 484.12,569.55 483.69,568.55 481.47,568.97 479.66,564.07 476.47,563.60 474.77,565.92 475.62,570.58 467.72,573.29 466.46,574.83 465.91,577.38 464.40,578.47 464.56,579.36 465.44,579.92 466.51,579.49 468.26,581.61 471.70,582.53 486.34,578.89 486.08,577.78 502.93,573.38 504.64,580.16 501.54,580.91 503.16,587.58"/>
    <poly id="25841836" type="amenity.parking" color="184,184,179" fill="1" layer="-1.00" shape="152.73,377.82 298.14,339.02 294.76,326.06 291.56,313.79 287.86,299.60 142.44,339.15 146.83,358.10 152.73,377.82"/>
    <poly id="26249523" type="building.yes" color="255,230,230" fill="1" layer="-1.00" shape="559.79,423.12 588.55,388.04 572.99,345.06 594.53,337.23 609.44,379.95 655.60,388.49 651.71,409.48 606.72,401.07 576.64,437.25 559.79,423.12"/>
    <poly id="26250419" type="leisure.park" color="207,245,201" fill="1" layer="-2.00" shape="305.54,351.35 289.00,286.36 275.96,288.02 262.28,291.95 237.23,302.13 188.28,321.94 139.85,337.33 146.75,360.80 155.25,389.16 305.54,351.35"/>
    <poly id="26250631" type="building.yes" color="255,230,230" fill="1" layer="-1.00" shape="707.67,408.60 695.23,387.79 722.89,371.40 735.33,392.20 707.67,408.60"/>
    <poly id="26250731" type="building.yes" color="255,230,230" fill="1" layer="-1.00" shape="234.68,220.16 279.69,202.53 293.17,236.65 248.17,254.28 234.68,220.16"/>
    <poly id="26291091" type="leisure.common" color="207,245,201" fill="1" layer="-2.00" shape="574.30,233.99 576.23,228.61 580.42,225.54 586.98,225.59 591.30,228.98 592.95,234.94 591.21,239.72 587.66,242.67 581.93,243.42 578.51,242.05 575.57,238.97 574.30,233.99"/>
    <poly id="29268613" type="amenity.university" color="237,199,199" fill="1" layer="-1.00" shape="-95.86,2595.32 -81.94,2581.58 75.59,2407.03 118.72,2360.70 214.96,2275.18 506.32,1960.19 543.16,1915.91 1280.00,1115.92 1204.35,1097.44 1138.36,1103.95 1082.52,1095.83 1050.97,1074.58 771.66,806.58 723.41,766.07 675.64,758.08 655.11,760.17 601.15,627.02 571.14,552.96 551.83,481.98 529.31,388.47 474.74,289.66 380.13,253.27 272.26,255.35 186.12,290.89 121.38,311.48 -20.81,243.67 -128.00,168.61 -201.68,83.25 -300.97,-27.29 -425.72,-92.67 -588.82,-116.80 -711.92,-110.32 -778.98,-84.43 -908.96,12.76 -986.84,59.72 -1377.69,197.75 -1374.70,292.32 -1393.35,515.26 -1369.97,621.35 -1594.55,683.69 -1465.18,948.70 -1806.13,986.88 -1797.43,1074.25 -1669.33,1088.66 -1643.49,1130.36 -1678.75,1302.99 -1497.21,1480.18 -855.15,2079.80 -466.94,1964.82 -372.95,2246.98 -348.65,2321.69 -344.15,2335.97 -336.48,2348.08 -329.09,2358.04 -306.24,2383.25 -218.93,2476.30 -176.09,2521.18 -109.44,2593.67 -106.22,2595.41 -102.69,2596.14 -95.86,2595.32"/>
    <poly id="30775908" type="building.dormitory" color="255,230,230" fill="1" layer="-1.00" shape="231.03,409.32 232.21,414.33 233.55,419.05 270.31,409.23 265.73,392.20 271.33,390.71 268.66,380.83 255.71,384.29 258.30,393.88 259.52,393.55 260.27,396.36 229.68,404.53 231.03,409.32"/>
    <poly id="30775909" type="building.yes" color="255,230,230" fill="1" layer="-1.00" shape="262.05,413.11 274.91,409.86 278.77,425.00 265.91,428.24 262.05,413.11"/>
    <poly id="30775913" type="building.dormitory" color="255,230,230" fill="1" layer="-1.00" shape="248.55,508.85 249.93,514.11 251.14,518.94 236.55,522.77 226.74,485.72 216.44,488.43 213.20,476.18 222.50,473.75 224.20,480.21 226.98,479.48 227.52,481.55 242.29,477.67 240.88,472.34 255.82,468.42 259.32,481.61 242.58,486.00 248.55,508.85"/>
    <poly id="30775924" type="landuse.residential" color="235,235,227" fill="1" layer="-3.00" shape="211.63,382.78 264.71,369.97 287.69,365.74 390.44,340.80 429.26,487.42 213.96,545.79 211.45,534.11 210.87,513.30 210.37,480.63 202.54,456.54 194.30,439.83 183.15,417.65 184.58,402.97 193.82,391.98 211.63,382.78"/>
    <poly id="31711584" type="building.yes" color="255,230,230" fill="1" layer="-1.00" shape="316.05,414.95 312.35,400.01 324.67,396.98 328.37,411.93 316.05,414.95"/>
    <poly id="31711588" type="building.yes" color="255,230,230" fill="1" layer="-1.00" shape="332.05,480.91 328.02,465.53 340.94,462.17 344.97,477.56 332.05,480.91"/>
    <poly id="31711591" type="building.yes" color="255,230,230" fill="1" layer="-1.00" shape="377.60,481.17 380.00,480.62 380.58,483.14 383.86,482.39 383.28,479.87 384.97,479.48 383.82,474.49 376.45,476.18 377.60,481.17"/>
    <poly id="31711608" type="leisure.common" color="207,245,201" fill="1" layer="-2.00" shape="313.25,517.14 308.01,496.44 325.22,492.13 330.45,512.83 313.25,517.14"/>
    <poly id="31711609" type="amenity.parking" color="184,184,179" fill="1" layer="-1.00" shape="349.37,538.13 360.38,579.82 377.90,574.69 367.63,533.75 349.37,538.13"/>
    <poly id="31711610" type="amenity.parking" color="184,184,179" fill="1" layer="-1.00" shape="279.33,555.66 345.56,538.85 344.10,532.79 277.87,549.60 279.33,555.66"/>
    <poly id="31711611" type="amenity.parking" color="184,184,179" fill="1" layer="-1.00" shape="350.30,519.16 348.89,513.56 295.91,526.76 297.32,532.36 350.30,519.16"/>
    <poly id="31711622" type="building.yes" color="255,230,230" fill="1" layer="-1.00" shape="273.34,472.45 263.84,435.77 282.06,431.09 281.77,429.99 290.00,427.88 291.24,432.64 305.42,428.99 304.20,424.27 315.74,421.31 316.01,422.33 334.03,417.70 336.51,427.29 335.02,427.67 339.50,444.97 340.58,444.69 343.08,454.35 327.66,458.30 327.23,456.65 317.46,459.17 318.35,462.59 319.78,462.22 321.85,470.19 300.19,475.76 298.12,467.76 299.46,467.41 298.67,464.37 288.84,466.89 289.23,468.37 273.34,472.45"/>
    <poly id="31711629" type="amenity.parking" color="184,184,179" fill="1" layer="-1.00" shape="290.00,425.67 309.73,420.42 301.47,390.55 291.42,393.37 286.50,394.81 286.78,413.37 290.00,425.67"/>
    <poly id="343020505" type="building.dormitory" color="255,230,230" fill="1" layer="-1.00" shape="338.03,481.29 341.57,495.24 378.88,485.87 375.26,471.94 338.03,481.29"/>
    <poly id="343020506" type="building.dormitory" color="255,230,230" fill="1" layer="-1.00" shape="386.12,483.92 400.35,480.34 390.92,443.13 401.10,440.57 399.75,435.25 398.49,435.56 396.45,427.54 388.40,429.56 390.28,436.98 387.61,437.65 388.23,440.11 373.36,443.84 371.99,438.44 357.23,442.15 360.66,455.70 377.95,451.36 383.82,474.49 384.97,479.48 386.12,483.92"/>
    <poly id="343020507" type="building.dormitory" color="255,230,230" fill="1" layer="-1.00" shape="351.50,421.89 347.93,408.37 365.70,403.71 357.15,371.31 371.31,367.60 380.87,403.80 389.78,401.47 393.21,414.45 385.43,416.49 383.65,409.75 380.51,410.58 380.07,408.92 365.37,412.77 366.73,417.90 351.50,421.89"/>
    <poly id="343020508" type="building.dormitory" color="255,230,230" fill="1" layer="-1.00" shape="316.14,397.27 312.47,383.45 311.63,380.30 306.14,381.74 303.78,372.89 316.77,369.47 318.97,377.74 317.66,378.09 318.66,381.84 349.53,373.72 353.19,387.50 316.14,397.27"/>
    <poly id="67142977" type="landuse.residential" color="235,235,227" fill="1" layer="-3.00" shape="1082.47,202.27 1492.78,835.43 1501.34,849.42 1503.75,863.60 1500.58,877.73 1488.55,893.88 1296.81,1102.30 1254.55,1081.58 1220.43,1074.90 1169.84,1076.07 1130.79,1080.57 1110.32,1080.84 1078.00,1068.90 1054.10,1048.41 1023.27,1018.73 911.19,915.95 738.35,744.93 644.16,713.53 601.15,627.02 571.14,552.96 551.83,481.98 687.14,443.27 734.90,419.89 1082.47,202.27"/>
    <poi id="3316594110" type="amenity.parking_entrance" color="237,199,199" layer="4.00" x="275.80" y="328.98"/>
</additional>
