<?xml version="1.0" encoding="UTF-8"?>

<!-- generated on 11/27/16 13:35:32 by SUMO netconvert Version 0.28.0
<?xml version="1.0" encoding="UTF-8"?>

<configuration xmlns:xsi="http://www.w3.org/2001/XMLSchema-instance" xsi:noNamespaceSchemaLocation="http://sumo.dlr.de/xsd/netconvertConfiguration.xsd">

    <input>
        <type-files value="C:\Program%20Files%20(x86)\DLR\Sumo\data\typemap\osmNetconvert.typ.xml"/>
        <osm-files value="osm_bbox.osm.xml"/>
    </input>

    <output>
        <output-file value="C:\Users\johnldean\Sumo\2016-11-27-13-35-30\osm.net.xml"/>
        <output.street-names value="true"/>
        <output.original-names value="true"/>
    </output>

    <projection>
        <proj.utm value="true"/>
    </projection>

    <tls_building>
        <tls.discard-simple value="true"/>
        <tls.join value="true"/>
        <tls.guess-signals value="true"/>
    </tls_building>

    <ramp_guessing>
        <ramps.guess value="true"/>
    </ramp_guessing>

    <processing>
        <geometry.remove value="true"/>
        <roundabouts.guess value="true"/>
        <junctions.join value="true"/>
        <junctions.corner-detail value="5"/>
    </processing>

    <report>
        <verbose value="true"/>
    </report>

</configuration>
-->

<net version="0.27" junctionCornerDetail="5" xmlns:xsi="http://www.w3.org/2001/XMLSchema-instance" xsi:noNamespaceSchemaLocation="http://sumo.dlr.de/xsd/net_file.xsd">

    <location netOffset="-573742.09,-4141791.05" convBoundary="0.00,0.00,878.42,812.25" origBoundary="-122.166573,37.419933,-122.156657,37.427286" projParameter="+proj=utm +zone=10 +ellps=WGS84 +datum=WGS84 +units=m +no_defs"/>

    <type id="highway.bridleway" priority="1" numLanes="1" speed="2.78" allow="pedestrian" oneway="1" width="2.00"/>
    <type id="highway.bus_guideway" priority="1" numLanes="1" speed="8.33" allow="bus" oneway="1"/>
    <type id="highway.cycleway" priority="1" numLanes="1" speed="5.56" allow="bicycle" oneway="0" width="1.00"/>
    <type id="highway.footway" priority="1" numLanes="1" speed="2.78" allow="pedestrian" oneway="1" width="2.00"/>
    <type id="highway.ford" priority="1" numLanes="1" speed="2.78" allow="army" oneway="0"/>
    <type id="highway.living_street" priority="3" numLanes="1" speed="2.78" disallow="tram rail_urban rail rail_electric ship" oneway="0"/>
    <type id="highway.motorway" priority="13" numLanes="2" speed="44.44" allow="private emergency authority army vip passenger hov taxi bus coach delivery truck trailer motorcycle evehicle custom1 custom2" oneway="1"/>
    <type id="highway.motorway_link" priority="12" numLanes="1" speed="22.22" allow="private emergency authority army vip passenger hov taxi bus coach delivery truck trailer motorcycle evehicle custom1 custom2" oneway="1"/>
    <type id="highway.path" priority="1" numLanes="1" speed="2.78" allow="bicycle pedestrian" oneway="1" width="2.00"/>
    <type id="highway.pedestrian" priority="1" numLanes="1" speed="2.78" allow="pedestrian" oneway="1" width="2.00"/>
    <type id="highway.primary" priority="9" numLanes="2" speed="27.78" disallow="tram rail_urban rail rail_electric ship" oneway="0"/>
    <type id="highway.primary_link" priority="8" numLanes="1" speed="22.22" disallow="tram rail_urban rail rail_electric ship" oneway="0"/>
    <type id="highway.raceway" priority="14" numLanes="2" speed="83.33" allow="vip" oneway="0"/>
    <type id="highway.residential" priority="4" numLanes="1" speed="13.89" disallow="tram rail_urban rail rail_electric ship" oneway="0"/>
    <type id="highway.secondary" priority="7" numLanes="2" speed="27.78" disallow="tram rail_urban rail rail_electric ship" oneway="0"/>
    <type id="highway.secondary_link" priority="6" numLanes="1" speed="22.22" disallow="tram rail_urban rail rail_electric ship" oneway="0"/>
    <type id="highway.service" priority="2" numLanes="1" speed="5.56" allow="delivery bicycle pedestrian" oneway="0"/>
    <type id="highway.services" priority="1" numLanes="1" speed="8.33" disallow="tram rail_urban rail rail_electric ship" oneway="0"/>
    <type id="highway.stairs" priority="1" numLanes="1" speed="1.39" allow="pedestrian" oneway="1" width="2.00"/>
    <type id="highway.step" priority="1" numLanes="1" speed="1.39" allow="pedestrian" oneway="1" width="2.00"/>
    <type id="highway.steps" priority="1" numLanes="1" speed="1.39" allow="pedestrian" oneway="1" width="2.00"/>
    <type id="highway.tertiary" priority="6" numLanes="1" speed="22.22" disallow="tram rail_urban rail rail_electric ship" oneway="0"/>
    <type id="highway.tertiary_link" priority="5" numLanes="1" speed="22.22" disallow="tram rail_urban rail rail_electric ship" oneway="0"/>
    <type id="highway.track" priority="1" numLanes="1" speed="5.56" disallow="tram rail_urban rail rail_electric ship" oneway="0"/>
    <type id="highway.trunk" priority="11" numLanes="2" speed="27.78" disallow="tram rail_urban rail rail_electric bicycle pedestrian ship" oneway="0"/>
    <type id="highway.trunk_link" priority="10" numLanes="1" speed="22.22" disallow="tram rail_urban rail rail_electric bicycle pedestrian ship" oneway="0"/>
    <type id="highway.unclassified" priority="5" numLanes="1" speed="13.89" disallow="tram rail_urban rail rail_electric ship" oneway="0"/>
    <type id="highway.unsurfaced" priority="1" numLanes="1" speed="8.33" disallow="tram rail_urban rail rail_electric ship" oneway="0"/>
    <type id="railway.light_rail" priority="15" numLanes="1" speed="27.78" allow="rail_urban" oneway="1"/>
    <type id="railway.preserved" priority="15" numLanes="1" speed="27.78" allow="rail" oneway="1"/>
    <type id="railway.rail" priority="15" numLanes="1" speed="83.33" allow="rail rail_electric" oneway="1"/>
    <type id="railway.subway" priority="15" numLanes="1" speed="27.78" allow="rail_urban" oneway="1"/>
    <type id="railway.tram" priority="15" numLanes="1" speed="13.89" allow="tram" oneway="1"/>

    <edge id=":1257070642_0" function="internal">
        <lane id=":1257070642_0_0" index="0" disallow="tram rail_urban rail rail_electric ship" speed="13.89" length="4.82" shape="216.17,177.22 215.54,175.87 215.61,174.95 216.40,174.46 217.88,174.40"/>
    </edge>
    <edge id=":1330035229_0" function="internal">
        <lane id=":1330035229_0_0" index="0" allow="delivery bicycle pedestrian" speed="5.56" length="8.03" shape="637.66,487.47 635.99,485.84 635.15,484.46 634.56,482.88 633.66,480.66"/>
    </edge>
    <edge id=":1330035229_1" function="internal">
        <lane id=":1330035229_1_0" index="0" allow="delivery bicycle pedestrian" speed="5.56" length="13.10" shape="637.66,487.47 635.35,484.83 635.21,482.53 637.22,480.57 641.40,478.95"/>
    </edge>
    <edge id=":1330035229_2" function="internal">
        <lane id=":1330035229_2_0" index="0" allow="delivery bicycle pedestrian" speed="5.56" length="5.24" shape="637.66,487.47 637.85,485.86 638.44,485.05 639.44,485.04 640.86,485.83"/>
    </edge>
    <edge id=":1330035229_3" function="internal">
        <lane id=":1330035229_3_0" index="0" allow="delivery bicycle pedestrian" speed="5.56" length="5.61" shape="642.27,482.14 640.53,482.82 639.71,483.66 639.82,484.67 640.86,485.83"/>
    </edge>
    <edge id=":1330035229_4" function="internal">
        <lane id=":1330035229_4_0" index="0" allow="delivery bicycle pedestrian" speed="5.56" length="9.45" shape="642.27,482.14 639.10,482.77 636.61,482.73 634.79,482.03 633.66,480.66"/>
    </edge>
    <edge id=":1330035229_5" function="internal">
        <lane id=":1330035229_5_0" index="0" allow="delivery bicycle pedestrian" speed="5.56" length="4.82" shape="642.27,482.14 640.86,481.67 640.24,480.98 640.42,480.08 641.40,478.95"/>
    </edge>
    <edge id=":1330035229_6" function="internal">
        <lane id=":1330035229_6_0" index="0" allow="delivery bicycle pedestrian" speed="5.56" length="4.90" shape="636.66,479.27 637.44,479.64 638.82,479.55 640.31,479.24 641.40,478.95"/>
    </edge>
    <edge id=":1330035229_7" function="internal">
        <lane id=":1330035229_7_0" index="0" allow="delivery bicycle pedestrian" speed="5.56" length="7.91" shape="636.66,479.27 637.58,481.44 638.25,482.94 639.17,484.25 640.86,485.83"/>
    </edge>
    <edge id=":1330035229_8" function="internal">
        <lane id=":1330035229_8_0" index="0" allow="delivery bicycle pedestrian" speed="5.56" length="4.82" shape="636.66,479.27 636.43,480.74 635.85,481.46 634.93,481.43 633.66,480.66"/>
    </edge>
    <edge id=":1330035257_0" function="internal">
        <lane id=":1330035257_0_0" index="0" allow="delivery bicycle pedestrian" speed="5.56" length="3.95" shape="633.58,480.48 632.95,480.07 631.90,480.07 630.75,480.30 629.81,480.57"/>
    </edge>
    <edge id=":1330035257_1" function="internal">
        <lane id=":1330035257_1_0" index="0" allow="delivery bicycle pedestrian" speed="5.56" length="7.48" shape="633.58,480.48 630.88,473.50"/>
    </edge>
    <edge id=":1330035257_2" function="internal">
        <lane id=":1330035257_2_0" index="0" allow="delivery bicycle pedestrian" speed="5.56" length="4.82" shape="633.58,480.48 633.81,479.01 634.38,478.29 635.30,478.31 636.57,479.09"/>
    </edge>
    <edge id=":1330035257_3" function="internal">
        <lane id=":1330035257_3_0" index="0" allow="delivery bicycle pedestrian" speed="5.56" length="7.16" shape="634.00,472.41 636.57,479.09"/>
    </edge>
    <edge id=":1330035257_4" function="internal">
        <lane id=":1330035257_4_0" index="0" allow="delivery bicycle pedestrian" speed="5.56" length="10.58" shape="634.00,472.41 634.56,475.27 634.05,477.59 632.46,479.35 629.81,480.57"/>
    </edge>
    <edge id=":1330035257_5" function="internal">
        <lane id=":1330035257_5_0" index="0" allow="delivery bicycle pedestrian" speed="5.56" length="4.82" shape="634.00,472.41 633.63,473.85 632.98,474.51 632.07,474.39 630.88,473.50"/>
    </edge>
    <edge id=":1330035257_6" function="internal">
        <lane id=":1330035257_6_0" index="0" allow="delivery bicycle pedestrian" speed="5.56" length="5.06" shape="628.88,477.40 630.15,476.82 630.91,475.98 631.15,474.87 630.88,473.50"/>
    </edge>
    <edge id=":1330035257_7" function="internal">
        <lane id=":1330035257_7_0" index="0" allow="delivery bicycle pedestrian" speed="5.56" length="8.61" shape="628.88,477.40 631.64,476.83 633.84,476.93 635.49,477.68 636.57,479.09"/>
    </edge>
    <edge id=":1330035257_8" function="internal">
        <lane id=":1330035257_8_0" index="0" allow="delivery bicycle pedestrian" speed="5.56" length="4.82" shape="628.88,477.40 630.30,477.84 630.93,478.52 630.77,479.42 629.81,480.57"/>
    </edge>
    <edge id=":1330035377_0" function="internal">
        <lane id=":1330035377_0_0" index="0" allow="delivery bicycle pedestrian" speed="5.56" length="4.82" shape="595.33,490.72 593.91,490.28 593.28,489.60 593.44,488.70 594.40,487.56"/>
    </edge>
    <edge id=":1330035450_0" function="internal">
        <lane id=":1330035450_0_0" index="0" allow="delivery bicycle pedestrian" speed="5.56" length="9.67" shape="758.33,462.27 749.71,466.67"/>
    </edge>
    <edge id=":1330035450_1" function="internal">
        <lane id=":1330035450_1_0" index="0" allow="delivery bicycle pedestrian" speed="5.56" length="10.42" shape="758.33,462.27 755.69,463.21 753.35,463.07 751.31,461.84 749.58,459.52"/>
    </edge>
    <edge id=":1330035450_2" function="internal">
        <lane id=":1330035450_2_0" index="0" allow="delivery bicycle pedestrian" speed="5.56" length="4.82" shape="758.33,462.27 756.85,462.12 756.10,461.59 756.07,460.67 756.78,459.36"/>
    </edge>
    <edge id=":1330035450_3" function="internal">
        <lane id=":1330035450_3_0" index="0" allow="delivery bicycle pedestrian" speed="5.56" length="5.16" shape="752.47,457.93 753.34,459.10 754.34,459.72 755.49,459.81 756.78,459.36"/>
    </edge>
    <edge id=":1330035450_4" function="internal">
        <lane id=":1330035450_4_0" index="0" allow="delivery bicycle pedestrian" speed="5.56" length="10.57" shape="752.47,457.93 753.50,460.65 753.39,463.02 752.13,465.03 749.71,466.67"/>
    </edge>
    <edge id=":1330035450_5" function="internal">
        <lane id=":1330035450_5_0" index="0" allow="delivery bicycle pedestrian" speed="5.56" length="4.82" shape="752.47,457.93 752.35,459.41 751.82,460.17 750.90,460.21 749.58,459.52"/>
    </edge>
    <edge id=":1330035450_6" function="internal">
        <lane id=":1330035450_6_0" index="0" allow="delivery bicycle pedestrian" speed="5.56" length="5.06" shape="748.26,463.70 749.42,462.92 750.02,461.96 750.08,460.83 749.58,459.52"/>
    </edge>
    <edge id=":1330035450_7" function="internal">
        <lane id=":1330035450_7_0" index="0" allow="delivery bicycle pedestrian" speed="5.56" length="9.56" shape="748.26,463.70 756.78,459.36"/>
    </edge>
    <edge id=":1330035450_8" function="internal">
        <lane id=":1330035450_8_0" index="0" allow="delivery bicycle pedestrian" speed="5.56" length="4.82" shape="748.26,463.70 749.74,463.90 750.47,464.46 750.46,465.38 749.71,466.67"/>
    </edge>
    <edge id=":1729914107_0" function="internal">
        <lane id=":1729914107_0_0" index="0" disallow="tram rail_urban rail rail_electric ship" speed="13.89" length="5.13" shape="235.44,270.11 233.60,265.32"/>
    </edge>
    <edge id=":1729914107_1" function="internal">
        <lane id=":1729914107_1_0" index="0" disallow="tram rail_urban rail rail_electric ship" speed="13.89" length="2.41" shape="235.44,270.11 235.77,268.66 236.39,267.98"/>
    </edge>
    <edge id=":1729914107_4" function="internal">
        <lane id=":1729914107_4_0" index="0" speed="13.89" length="2.41" shape="236.39,267.98 237.31,268.07 238.52,268.92"/>
    </edge>
    <edge id=":1729914107_2" function="internal">
        <lane id=":1729914107_2_0" index="0" disallow="tram rail_urban rail rail_electric ship" speed="13.89" length="5.13" shape="236.68,264.14 238.52,268.92"/>
    </edge>
    <edge id=":1729914107_3" function="internal">
        <lane id=":1729914107_3_0" index="0" disallow="tram rail_urban rail rail_electric ship" speed="13.89" length="2.41" shape="236.68,264.14 236.36,265.59 235.74,266.27"/>
    </edge>
    <edge id=":1729914107_5" function="internal">
        <lane id=":1729914107_5_0" index="0" speed="13.89" length="2.41" shape="235.74,266.27 234.82,266.18 233.60,265.32"/>
    </edge>
    <edge id=":1729914113_0" function="internal">
        <lane id=":1729914113_0_0" index="0" disallow="tram rail_urban rail rail_electric ship" speed="22.22" length="5.06" shape="456.20,287.20 457.42,287.46 458.56,287.28 459.62,286.67 460.60,285.63"/>
    </edge>
    <edge id=":1729914113_1" function="internal">
        <lane id=":1729914113_1_0" index="0" disallow="tram rail_urban rail rail_electric ship" speed="22.22" length="5.82" shape="456.20,287.20 457.80,287.82 458.87,288.33 459.87,288.97 461.28,289.97"/>
    </edge>
    <edge id=":2128259717_0" function="internal">
        <lane id=":2128259717_0_0" index="0" disallow="tram rail_urban rail rail_electric ship" speed="22.22" length="3.22" shape="470.91,291.96 468.87,294.75"/>
        <lane id=":2128259717_0_1" index="1" disallow="tram rail_urban rail rail_electric ship" speed="22.22" length="3.22" shape="468.15,290.15 466.40,292.56"/>
    </edge>
    <edge id=":256558468_0" function="internal">
        <lane id=":256558468_0_0" index="0" disallow="tram rail_urban rail rail_electric ship" speed="13.89" length="4.82" shape="122.19,587.51 120.82,586.94 120.26,586.21 120.50,585.32 121.56,584.27"/>
    </edge>
    <edge id=":256568846_0" function="internal">
        <lane id=":256568846_0_0" index="0" disallow="tram rail_urban rail rail_electric ship" speed="9.73" length="5.03" shape="398.86,338.13 398.32,336.86 397.51,336.05 396.43,335.71 395.07,335.85"/>
    </edge>
    <edge id=":256568846_1" function="internal">
        <lane id=":256568846_1_0" index="0" disallow="tram rail_urban rail rail_electric ship" speed="9.73" length="10.34" shape="398.86,338.13 398.53,335.32 399.18,333.07 400.81,331.40 403.42,330.30"/>
    </edge>
    <edge id=":256568846_2" function="internal">
        <lane id=":256568846_2_0" index="0" allow="delivery bicycle pedestrian" speed="5.56" length="4.82" shape="398.86,338.13 399.34,336.73 400.03,336.12 400.94,336.30 402.05,337.28"/>
    </edge>
    <edge id=":256568846_3" function="internal">
        <lane id=":256568846_3_0" index="0" allow="delivery bicycle pedestrian" speed="9.73" length="5.00" shape="404.26,333.49 402.99,334.03 402.20,334.84 401.89,335.92 402.05,337.28"/>
    </edge>
    <edge id=":256568846_4" function="internal">
        <lane id=":256568846_4_0" index="0" disallow="tram rail_urban rail rail_electric ship" speed="13.89" length="9.48" shape="404.26,333.49 395.07,335.85"/>
    </edge>
    <edge id=":256568846_5" function="internal">
        <lane id=":256568846_5_0" index="0" disallow="tram rail_urban rail rail_electric ship" speed="13.89" length="2.41" shape="404.26,333.49 402.85,333.01 402.24,332.32"/>
    </edge>
    <edge id=":256568846_9" function="internal">
        <lane id=":256568846_9_0" index="0" speed="13.89" length="2.41" shape="402.24,332.32 402.43,331.41 403.42,330.30"/>
    </edge>
    <edge id=":256568846_6" function="internal">
        <lane id=":256568846_6_0" index="0" disallow="tram rail_urban rail rail_electric ship" speed="13.89" length="9.45" shape="394.27,332.65 403.42,330.30"/>
    </edge>
    <edge id=":256568846_7" function="internal">
        <lane id=":256568846_7_0" index="0" allow="delivery bicycle pedestrian" speed="9.73" length="5.13" shape="394.27,332.65 397.06,332.36 399.28,333.04"/>
    </edge>
    <edge id=":256568846_8" function="internal">
        <lane id=":256568846_8_0" index="0" disallow="tram rail_urban rail rail_electric ship" speed="13.89" length="2.41" shape="394.27,332.65 395.67,333.15 396.27,333.85"/>
    </edge>
    <edge id=":256568846_10" function="internal">
        <lane id=":256568846_10_0" index="0" speed="9.73" length="5.17" shape="399.28,333.04 400.95,334.68 402.05,337.28"/>
    </edge>
    <edge id=":256568846_11" function="internal">
        <lane id=":256568846_11_0" index="0" speed="13.89" length="2.41" shape="396.27,333.85 396.07,334.75 395.07,335.85"/>
    </edge>
    <edge id=":2571160812_0" function="internal">
        <lane id=":2571160812_0_0" index="0" allow="delivery bicycle pedestrian" speed="5.56" length="4.82" shape="710.68,195.66 712.17,195.70 712.96,196.17 713.05,197.09 712.44,198.45"/>
    </edge>
    <edge id=":2571160814_0" function="internal">
        <lane id=":2571160814_0_0" index="0" allow="delivery bicycle pedestrian" speed="5.56" length="5.32" shape="634.08,267.38 632.79,266.54 631.56,266.23 630.41,266.46 629.33,267.24"/>
    </edge>
    <edge id=":2571160814_1" function="internal">
        <lane id=":2571160814_1_0" index="0" allow="delivery bicycle pedestrian" speed="5.56" length="10.69" shape="634.08,267.38 632.12,265.18 631.38,262.91 631.88,260.57 633.62,258.18"/>
    </edge>
    <edge id=":2571160814_2" function="internal">
        <lane id=":2571160814_2_0" index="0" allow="delivery bicycle pedestrian" speed="5.56" length="4.82" shape="634.08,267.38 633.67,265.96 633.88,265.06 634.73,264.69 636.21,264.86"/>
    </edge>
    <edge id=":2571160814_3" function="internal">
        <lane id=":2571160814_3_0" index="0" allow="delivery bicycle pedestrian" speed="5.56" length="5.09" shape="635.99,260.48 635.16,261.62 634.92,262.73 635.27,263.81 636.21,264.86"/>
    </edge>
    <edge id=":2571160814_4" function="internal">
        <lane id=":2571160814_4_0" index="0" allow="delivery bicycle pedestrian" speed="5.56" length="9.49" shape="635.99,260.48 629.33,267.24"/>
    </edge>
    <edge id=":2571160814_5" function="internal">
        <lane id=":2571160814_5_0" index="0" allow="delivery bicycle pedestrian" speed="5.56" length="4.82" shape="635.99,260.48 634.53,260.79 633.65,260.51 633.35,259.64 633.62,258.18"/>
    </edge>
    <edge id=":2571160814_6" function="internal">
        <lane id=":2571160814_6_0" index="0" allow="delivery bicycle pedestrian" speed="5.56" length="9.44" shape="626.99,264.91 633.62,258.18"/>
    </edge>
    <edge id=":2571160814_7" function="internal">
        <lane id=":2571160814_7_0" index="0" allow="delivery bicycle pedestrian" speed="5.56" length="10.32" shape="626.99,264.91 629.16,263.32 631.42,262.78 633.77,263.29 636.21,264.86"/>
    </edge>
    <edge id=":2571160814_8" function="internal">
        <lane id=":2571160814_8_0" index="0" allow="delivery bicycle pedestrian" speed="5.56" length="4.82" shape="626.99,264.91 628.45,264.62 629.33,264.91 629.62,265.78 629.33,267.24"/>
    </edge>
    <edge id=":2571160817_0" function="internal">
        <lane id=":2571160817_0_0" index="0" allow="delivery bicycle pedestrian" speed="5.56" length="6.87" shape="539.75,367.39 539.21,365.47 538.56,364.23 537.60,363.17 536.11,361.78"/>
    </edge>
    <edge id=":2571160817_1" function="internal">
        <lane id=":2571160817_1_0" index="0" allow="delivery bicycle pedestrian" speed="5.56" length="8.98" shape="539.75,367.39 539.58,365.34 540.03,363.32 541.09,361.32 542.77,359.36"/>
    </edge>
    <edge id=":2571160817_2" function="internal">
        <lane id=":2571160817_2_0" index="0" allow="delivery bicycle pedestrian" speed="5.56" length="4.82" shape="539.75,367.39 540.28,366.00 540.99,365.42 541.88,365.63 542.97,366.65"/>
    </edge>
    <edge id=":2571160817_3" function="internal">
        <lane id=":2571160817_3_0" index="0" allow="delivery bicycle pedestrian" speed="5.56" length="5.61" shape="545.08,361.71 543.95,363.00 543.23,364.25 542.90,365.47 542.97,366.65"/>
    </edge>
    <edge id=":2571160817_4" function="internal">
        <lane id=":2571160817_4_0" index="0" allow="delivery bicycle pedestrian" speed="5.56" length="10.16" shape="545.08,361.71 542.85,363.36 540.61,363.92 538.37,363.39 536.11,361.78"/>
    </edge>
    <edge id=":2571160817_5" function="internal">
        <lane id=":2571160817_5_0" index="0" allow="delivery bicycle pedestrian" speed="5.56" length="4.82" shape="545.08,361.71 543.62,361.99 542.75,361.69 542.47,360.81 542.77,359.36"/>
    </edge>
    <edge id=":2571160817_6" function="internal">
        <lane id=":2571160817_6_0" index="0" allow="delivery bicycle pedestrian" speed="5.56" length="4.96" shape="538.39,359.39 539.49,360.18 540.59,360.43 541.68,360.16 542.77,359.36"/>
    </edge>
    <edge id=":2571160817_7" function="internal">
        <lane id=":2571160817_7_0" index="0" allow="delivery bicycle pedestrian" speed="5.56" length="8.81" shape="538.39,359.39 540.28,361.19 541.48,362.56 542.28,364.17 542.97,366.65"/>
    </edge>
    <edge id=":2571160817_8" function="internal">
        <lane id=":2571160817_8_0" index="0" allow="delivery bicycle pedestrian" speed="5.56" length="4.82" shape="538.39,359.39 538.72,360.84 538.45,361.72 537.58,362.03 536.11,361.78"/>
    </edge>
    <edge id=":2571160819_0" function="internal">
        <lane id=":2571160819_0_0" index="0" allow="delivery bicycle pedestrian" speed="5.56" length="4.82" shape="650.30,416.36 651.71,416.83 652.32,417.51 652.14,418.42 651.17,419.54"/>
    </edge>
    <edge id=":2571160820_0" function="internal">
        <lane id=":2571160820_0_0" index="0" allow="delivery bicycle pedestrian" speed="5.56" length="5.13" shape="617.37,432.19 616.77,430.88 615.92,430.06 614.82,429.72 613.47,429.88"/>
    </edge>
    <edge id=":2571160820_1" function="internal">
        <lane id=":2571160820_1_0" index="0" allow="delivery bicycle pedestrian" speed="5.56" length="10.49" shape="617.37,432.19 616.92,429.34 617.50,427.06 619.11,425.34 621.76,424.19"/>
    </edge>
    <edge id=":2571160820_2" function="internal">
        <lane id=":2571160820_2_0" index="0" allow="delivery bicycle pedestrian" speed="5.56" length="4.82" shape="617.37,432.19 617.80,430.77 618.46,430.13 619.37,430.28 620.53,431.21"/>
    </edge>
    <edge id=":2571160820_3" function="internal">
        <lane id=":2571160820_3_0" index="0" allow="delivery bicycle pedestrian" speed="5.56" length="5.04" shape="622.63,427.37 621.36,427.92 620.59,428.75 620.31,429.84 620.53,431.21"/>
    </edge>
    <edge id=":2571160820_4" function="internal">
        <lane id=":2571160820_4_0" index="0" allow="delivery bicycle pedestrian" speed="5.56" length="9.50" shape="622.63,427.37 613.47,429.88"/>
    </edge>
    <edge id=":2571160820_5" function="internal">
        <lane id=":2571160820_5_0" index="0" allow="delivery bicycle pedestrian" speed="5.56" length="4.82" shape="622.63,427.37 621.22,426.90 620.61,426.21 620.79,425.31 621.76,424.19"/>
    </edge>
    <edge id=":2571160820_6" function="internal">
        <lane id=":2571160820_6_0" index="0" allow="delivery bicycle pedestrian" speed="5.56" length="9.50" shape="612.60,426.70 621.76,424.19"/>
    </edge>
    <edge id=":2571160820_7" function="internal">
        <lane id=":2571160820_7_0" index="0" allow="delivery bicycle pedestrian" speed="5.56" length="10.33" shape="612.60,426.70 615.35,426.36 617.59,427.00 619.31,428.62 620.53,431.21"/>
    </edge>
    <edge id=":2571160820_8" function="internal">
        <lane id=":2571160820_8_0" index="0" allow="delivery bicycle pedestrian" speed="5.56" length="4.82" shape="612.60,426.70 614.01,427.17 614.62,427.85 614.44,428.76 613.47,429.88"/>
    </edge>
    <edge id=":2571160821_0" function="internal">
        <lane id=":2571160821_0_0" index="0" allow="delivery bicycle pedestrian" speed="5.56" length="5.54" shape="532.12,357.97 530.80,356.96 529.54,356.51 528.33,356.60 527.17,357.25"/>
    </edge>
    <edge id=":2571160821_1" function="internal">
        <lane id=":2571160821_1_0" index="0" allow="delivery bicycle pedestrian" speed="5.56" length="10.97" shape="532.12,357.97 530.23,355.57 529.66,353.21 530.41,350.90 532.47,348.65"/>
    </edge>
    <edge id=":2571160821_2" function="internal">
        <lane id=":2571160821_2_0" index="0" allow="delivery bicycle pedestrian" speed="5.56" length="4.82" shape="532.12,357.97 531.79,356.52 532.07,355.64 532.93,355.33 534.40,355.58"/>
    </edge>
    <edge id=":2571160821_3" function="internal">
        <lane id=":2571160821_3_0" index="0" allow="delivery bicycle pedestrian" speed="5.56" length="5.15" shape="534.56,351.20 533.59,352.26 533.24,353.35 533.51,354.45 534.40,355.58"/>
    </edge>
    <edge id=":2571160821_4" function="internal">
        <lane id=":2571160821_4_0" index="0" allow="delivery bicycle pedestrian" speed="5.56" length="9.55" shape="534.56,351.20 527.17,357.25"/>
    </edge>
    <edge id=":2571160821_5" function="internal">
        <lane id=":2571160821_5_0" index="0" allow="delivery bicycle pedestrian" speed="5.56" length="4.82" shape="534.56,351.20 533.08,351.35 532.24,350.97 532.04,350.07 532.47,348.65"/>
    </edge>
    <edge id=":2571160821_6" function="internal">
        <lane id=":2571160821_6_0" index="0" allow="delivery bicycle pedestrian" speed="5.56" length="9.55" shape="525.08,354.70 532.47,348.65"/>
    </edge>
    <edge id=":2571160821_7" function="internal">
        <lane id=":2571160821_7_0" index="0" allow="delivery bicycle pedestrian" speed="5.56" length="10.39" shape="525.08,354.70 527.36,353.37 529.67,353.07 532.02,353.81 534.40,355.58"/>
    </edge>
    <edge id=":2571160821_8" function="internal">
        <lane id=":2571160821_8_0" index="0" allow="delivery bicycle pedestrian" speed="5.56" length="4.82" shape="525.08,354.70 526.56,354.55 527.41,354.93 527.61,355.83 527.17,357.25"/>
    </edge>
    <edge id=":2571160822_0" function="internal">
        <lane id=":2571160822_0_0" index="0" allow="delivery bicycle pedestrian" speed="5.56" length="5.85" shape="556.51,355.69 555.87,354.05 554.97,353.31 553.81,353.47 552.41,354.53"/>
    </edge>
    <edge id=":2571160822_1" function="internal">
        <lane id=":2571160822_1_0" index="0" allow="delivery bicycle pedestrian" speed="5.56" length="11.41" shape="556.51,355.69 555.85,352.05 555.81,349.01 556.40,346.59 557.62,344.78"/>
    </edge>
    <edge id=":2571160822_2" function="internal">
        <lane id=":2571160822_2_0" index="0" allow="delivery bicycle pedestrian" speed="5.56" length="4.82" shape="556.51,355.69 557.01,354.29 557.72,353.69 558.62,353.90 559.71,354.90"/>
    </edge>
    <edge id=":2571160822_3" function="internal">
        <lane id=":2571160822_3_0" index="0" allow="delivery bicycle pedestrian" speed="5.56" length="8.02" shape="559.93,347.13 559.28,348.25 559.02,349.92 559.16,352.14 559.71,354.90"/>
    </edge>
    <edge id=":2571160822_4" function="internal">
        <lane id=":2571160822_4_0" index="0" allow="delivery bicycle pedestrian" speed="5.56" length="10.55" shape="559.93,347.13 552.41,354.53"/>
    </edge>
    <edge id=":2571160822_5" function="internal">
        <lane id=":2571160822_5_0" index="0" allow="delivery bicycle pedestrian" speed="5.56" length="4.82" shape="559.93,347.13 558.47,347.41 557.60,347.11 557.32,346.24 557.62,344.78"/>
    </edge>
    <edge id=":2571160822_6" function="internal">
        <lane id=":2571160822_6_0" index="0" allow="delivery bicycle pedestrian" speed="5.56" length="10.55" shape="550.09,352.17 557.62,344.78"/>
    </edge>
    <edge id=":2571160822_7" function="internal">
        <lane id=":2571160822_7_0" index="0" allow="delivery bicycle pedestrian" speed="5.56" length="13.72" shape="550.09,352.17 553.40,349.69 556.10,349.32 558.21,351.06 559.71,354.90"/>
    </edge>
    <edge id=":2571160822_8" function="internal">
        <lane id=":2571160822_8_0" index="0" allow="delivery bicycle pedestrian" speed="5.56" length="4.82" shape="550.09,352.17 551.56,351.89 552.43,352.19 552.71,353.07 552.41,354.53"/>
    </edge>
    <edge id=":2571160824_0" function="internal">
        <lane id=":2571160824_0_0" index="0" allow="delivery bicycle pedestrian" speed="5.56" length="11.43" shape="549.30,408.86 546.74,397.72"/>
    </edge>
    <edge id=":2571160824_1" function="internal">