<?xml version="1.0"?>
<!-- generated on 2016-11-27 13:35:32.631000 by $Id: route2trips.py 20433 2016-04-13 08:00:14Z behrisch $ -->
<trips>
    <vType id="passenger" vClass="passenger"/>
    <trip id="veh0" depart="0.00" departLane="best" from="304316109#2" to="-23693056#0" type="passenger"/>
    <trip id="veh1" depart="7.42" departLane="best" from="-304316110#2" to="26250521#3" type="passenger"/>
    <trip id="veh3" depart="22.27" departLane="best" from="417242006" to="-23693056#0" type="passenger"/>
    <trip id="veh4" depart="29.69" departLane="best" from="-8940620#2" to="-23693056#0" type="passenger"/>
    <trip id="veh5" depart="37.12" departLane="best" from="-26250521#3" to="26250517#1" type="passenger"/>
    <trip id="veh6" depart="44.54" departLane="best" from="-304316110#2" to="304316112" type="passenger"/>
    <trip id="veh7" depart="51.96" departLane="best" from="396669256" to="-23693056#0" type="passenger"/>
    <trip id="veh8" depart="59.39" departLane="best" from="396669256" to="419108294#4" type="passenger"/>
    <trip id="veh9" depart="66.81" departLane="best" from="417242006" to="26250521#3" type="passenger"/>
    <trip id="veh10" depart="74.23" departLane="best" from="417242006" to="304316112" type="passenger"/>
    <trip id="veh11" depart="81.66" departLane="best" from="396669256" to="419108648" type="passenger"/>
    <trip id="veh12" depart="89.08" departLane="best" from="23693056#0" to="8940620#2" type="passenger"/>
    <trip id="veh13" depart="96.50" departLane="best" from="-8940620#2" to="304316112" type="passenger"/>
    <trip id="veh14" depart="103.93" departLane="best" from="417242006" to="304316112" type="passenger"/>
    <trip id="veh15" depart="111.35" departLane="best" from="417242006" to="304316112" type="passenger"/>
    <trip id="veh16" depart="118.77" departLane="best" from="396669256" to="-23693056#0" type="passenger"/>
    <trip id="veh17" depart="126.20" departLane="best" from="-304316110#2" to="26250521#3" type="passenger"/>
    <trip id="veh18" depart="133.62" departLane="best" from="-8940620#2" to="26250521#3" type="passenger"/>
    <trip id="veh19" depart="141.04" departLane="best" from="-304316110#2" to="8940620#2" type="passenger"/>
    <trip id="veh20" depart="148.47" departLane="best" from="-304316110#0" to="419108648" type="passenger"/>
    <trip id="veh21" depart="155.89" departLane="best" from="-26250535#0" to="304316110#2" type="passenger"/>
    <trip id="veh22" depart="163.31" departLane="best" from="419108640#1" to="304316112" type="passenger"/>
    <trip id="veh23" depart="170.74" departLane="best" from="23693056#0" to="396669261" type="passenger"/>
    <trip id="veh24" depart="178.16" departLane="best" from="417242006" to="419108648" type="passenger"/>
    <trip id="veh25" depart="185.58" departLane="best" from="-304316110#2" to="-23693056#0" type="passenger"/>
    <trip id="veh26" depart="193.01" departLane="best" from="-304316110#2" to="8940620#2" type="passenger"/>
    <trip id="veh27" depart="200.43" departLane="best" from="417242006" to="26250521#3" type="passenger"/>
    <trip id="veh28" depart="207.85" departLane="best" from="417242006" to="304316110#2" type="passenger"/>
    <trip id="veh29" depart="215.28" departLane="best" from="-304316110#2" to="26250521#3" type="passenger"/>
    <trip id="veh30" depart="222.70" departLane="best" from="23693056#0" to="8940620#2" type="passenger"/>
    <trip id="veh31" depart="230.12" departLane="best" from="-8940620#2" to="26250521#3" type="passenger"/>
    <trip id="veh32" depart="237.55" departLane="best" from="8940620#1" to="304316110#2" type="passenger"/>
    <trip id="veh33" depart="244.97" departLane="best" from="-26250521#3" to="304316112" type="passenger"/>
    <trip id="veh34" depart="252.39" departLane="best" from="396669256" to="304316110#2" type="passenger"/>
    <trip id="veh35" depart="259.82" departLane="best" from="-26250521#3" to="304316110#2" type="passenger"/>
    <trip id="veh36" depart="267.24" departLane="best" from="419108650" to="304316112" type="passenger"/>
    <trip id="veh37" depart="274.66" departLane="best" from="-26250517#1" to="419108648" type="passenger"/>
    <trip id="veh38" depart="282.09" departLane="best" from="-304316110#2" to="304316112" type="passenger"/>
    <trip id="veh39" depart="289.51" departLane="best" from="-26250521#3" to="304316110#2" type="passenger"/>
    <trip id="veh40" depart="296.93" departLane="best" from="417242006" to="26250521#3" type="passenger"/>
    <trip id="veh41" depart="304.36" departLane="best" from="417242006" to="8940620#2" type="passenger"/>
    <trip id="veh42" depart="311.78" departLane="best" from="-304316110#2" to="304316112" type="passenger"/>
    <trip id="veh43" depart="319.20" departLane="best" from="-23693056#1" to="26250521#3" type="passenger"/>
    <trip id="veh44" depart="326.63" departLane="best" from="417242006" to="419108648" type="passenger"/>
    <trip id="veh45" depart="334.05" departLane="best" from="-304316110#2" to="-23693056#0" type="passenger"/>
    <trip id="veh46" depart="341.47" departLane="best" from="417242006" to="8940620#2" type="passenger"/>
    <trip id="veh47" depart="348.90" departLane="best" from="-26250521#3" to="304316110#2" type="passenger"/>
    <trip id="veh48" depart="356.32" departLane="best" from="-26250521#3" to="419108648" type="passenger"/>
    <trip id="veh49" depart="363.74" departLane="best" from="396669256" to="-23693056#0" type="passenger"/>
    <trip id="veh50" depart="371.17" departLane="best" from="23693056#0" to="304316112" type="passenger"/>
    <trip id="veh51" depart="378.59" departLane="best" from="-304316110#2" to="8940620#2" type="passenger"/>
    <trip id="veh52" depart="386.01" departLane="best" from="-8940620#2" to="26250521#3" type="passenger"/>
    <trip id="veh53" depart="393.44" departLane="best" from="23693056#0" to="419108648" type="passenger"/>
    <trip id="veh54" depart="400.86" departLane="best" from="-304316110#2" to="26250521#3" type="passenger"/>
    <trip id="veh55" depart="408.28" departLane="best" from="419108650" to="304316112" type="passenger"/>
    <trip id="veh56" depart="415.71" departLane="best" from="-8940620#2" to="304316112" type="passenger"/>
    <trip id="veh57" depart="423.13" departLane="best" from="-8940620#2" to="304316112" type="passenger"/>
    <trip id="veh58" depart="430.55" departLane="best" from="-304316110#2" to="26250521#3" type="passenger"/>
    <trip id="veh59" depart="437.98" departLane="best" from="-26250521#3" to="304316112" type="passenger"/>
    <trip id="veh60" depart="445.40" departLane="best" from="-304316110#2" to="8940620#2" type="passenger"/>
    <trip id="veh61" depart="452.82" departLane="best" from="417242006" to="-23693056#0" type="passenger"/>
    <trip id="veh62" depart="460.25" departLane="best" from="-304316110#2" to="333374284#2" type="passenger"/>
    <trip id="veh63" depart="467.67" departLane="best" from="-304316110#2" to="-23693056#0" type="passenger"/>
    <trip id="veh64" depart="475.09" departLane="best" from="417242006" to="304316112" type="passenger"/>
    <trip id="veh65" depart="482.52" departLane="best" from="23693056#0" to="419108648" type="passenger"/>
    <trip id="veh66" depart="489.94" departLane="best" from="396669256" to="23693056#2" type="passenger"/>
    <trip id="veh67" depart="497.36" departLane="best" from="-26250521#3" to="304316110#2" type="passenger"/>
    <trip id="veh68" depart="504.79" departLane="best" from="-8940620#2" to="304316110#2" type="passenger"/>
    <trip id="veh70" depart="519.63" departLane="best" from="419108294#6" to="-23693056#0" type="passenger"/>
    <trip id="veh71" depart="527.06" departLane="best" from="-8940620#2" to="26250521#3" type="passenger"/>
    <trip id="veh72" depart="534.48" departLane="best" from="417242006" to="26250521#3" type="passenger"/>
    <trip id="veh73" depart="541.90" departLane="best" from="-8940620#2" to="26250521#3" type="passenger"/>
    <trip id="veh74" depart="549.33" departLane="best" from="-304316110#2" to="8940620#2" type="passenger"/>
    <trip id="veh75" depart="556.75" departLane="best" from="8940620#1" to="419108648" type="passenger"/>
    <trip id="veh76" depart="564.17" departLane="best" from="-8940620#2" to="-23693056#0" type="passenger"/>
    <trip id="veh77" depart="571.60" departLane="best" from="-304316110#2" to="419108648" type="passenger"/>
    <trip id="veh78" depart="579.02" departLane="best" from="-8940620#2" to="304316110#2" type="passenger"/>
    <trip id="veh79" depart="586.44" departLane="best" from="417242006" to="8940620#2" type="passenger"/>
    <trip id="veh80" depart="593.87" departLane="best" from="23693056#0" to="419108648" type="passenger"/>
    <trip id="veh81" depart="601.29" departLane="best" from="419108294#0" to="304316112" type="passenger"/>
    <trip id="veh82" depart="608.72" departLane="best" from="23693056#0" to="419108648" type="passenger"/>
    <trip id="veh83" depart="616.14" departLane="best" from="-26250521#3" to="304316112" type="passenger"/>
    <trip id="veh84" depart="623.56" departLane="best" from="23693056#0" to="419108648" type="passenger"/>
    <trip id="veh85" depart="630.99" departLane="best" from="-26250521#3" to="8940620#2" type="passenger"/>
    <trip id="veh86" depart="638.41" departLane="best" from="-26250521#3" to="23693056#1" type="passenger"/>
    <trip id="veh88" depart="653.26" departLane="best" from="-304316110#2" to="-23693056#0" type="passenger"/>
    <trip id="veh89" depart="660.68" departLane="best" from="417242006" to="26250521#3" type="passenger"/>
    <trip id="veh90" depart="668.10" departLane="best" from="23693056#0" to="304316112" type="passenger"/>
    <trip id="veh91" depart="675.53" departLane="best" from="-8940620#2" to="304316112" type="passenger"/>
    <trip id="veh92" depart="682.95" departLane="best" from="23693056#0" to="8940620#2" type="passenger"/>
    <trip id="veh93" depart="690.37" departLane="best" from="-304316110#2" to="419108648" type="passenger"/>
    <trip id="veh94" depart="697.80" departLane="best" from="396669254#0" to="26250521#3" type="passenger"/>
    <trip id="veh95" depart="705.22" departLane="best" from="-333374284#0" to="419108648" type="passenger"/>
    <trip id="veh96" depart="712.64" departLane="best" from="-26250521#3" to="304316110#2" type="passenger"/>
    <trip id="veh97" depart="720.07" departLane="best" from="-304316110#2" to="8940620#2" type="passenger"/>
    <trip id="veh98" depart="727.49" departLane="best" from="417242006" to="8940620#2" type="passenger"/>
    <trip id="veh99" depart="734.91" departLane="best" from="23693056#2" to="8940620#2" type="passenger"/>
    <trip id="veh100" depart="742.34" departLane="best" from="304316110#0" to="-23693056#0" type="passenger"/>
    <trip id="veh101" depart="749.76" departLane="best" from="396669256" to="26250521#3" type="passenger"/>
    <trip id="veh102" depart="757.18" departLane="best" from="333374284#0" to="8940620#2" type="passenger"/>
    <trip id="veh103" depart="764.61" departLane="best" from="-26250521#3" to="304316112" type="passenger"/>
    <trip id="veh104" depart="772.03" departLane="best" from="-304316110#2" to="304316112" type="passenger"/>
    <trip id="veh105" depart="779.45" departLane="best" from="396669256" to="26250521#1" type="passenger"/>
    <trip id="veh106" depart="786.88" departLane="best" from="26250535#1" to="26250521#3" type="passenger"/>
    <trip id="veh107" depart="794.30" departLane="best" from="23693056#0" to="8940620#2" type="passenger"/>
    <trip id="veh108" depart="801.72" departLane="best" from="417242006" to="-23693056#0" type="passenger"/>
    <trip id="veh109" depart="809.15" departLane="best" from="-8940620#2" to="26250521#3" type="passenger"/>
    <trip id="veh110" depart="816.57" departLane="best" from="-23693056#2" to="419108648" type="passenger"/>
    <trip id="veh111" depart="823.99" departLane="best" from="304316109#1" to="26250521#3" type="passenger"/>
    <trip id="veh112" depart="831.42" departLane="best" from="-8940620#2" to="-23693056#0" type="passenger"/>
    <trip id="veh113" depart="838.84" departLane="best" from="-26250521#3" to="8940620#2" type="passenger"/>
    <trip id="veh114" depart="846.26" departLane="best" from="417242006" to="304316112" type="passenger"/>
    <trip id="veh115" depart="853.69" departLane="best" from="417242006" to="304316112" type="passenger"/>
    <trip id="veh116" depart="861.11" departLane="best" from="-304316110#2" to="8940620#2" type="passenger"/>
    <trip id="veh117" depart="868.53" departLane="best" from="396669256" to="8940620#2" type="passenger"/>
    <trip id="veh118" depart="875.96" departLane="best" from="417242006" to="26250521#3" type="passenger"/>
    <trip id="veh119" depart="883.38" departLane="best" from="-304316110#2" to="-23693056#0" type="passenger"/>
    <trip id="veh120" depart="890.80" departLane="best" from="396669256" to="8940620#2" type="passenger"/>
    <trip id="veh121" depart="898.23" departLane="best" from="-8940620#2" to="304316112" type="passenger"/>
    <trip id="veh122" depart="905.65" departLane="best" from="-26250521#3" to="8940620#2" type="passenger"/>
    <trip id="veh123" depart="913.07" departLane="best" from="417242006" to="8940620#2" type="passenger"/>
    <trip id="veh124" depart="920.50" departLane="best" from="396669256" to="8940620#2" type="passenger"/>
    <trip id="veh125" depart="927.92" departLane="best" from="-26250521#3" to="419108648" type="passenger"/>
    <trip id="veh126" depart="935.34" departLane="best" from="396669256" to="8940620#2" type="passenger"/>
    <trip id="veh127" depart="942.77" departLane="best" from="396669256" to="26250521#3" type="passenger"/>
    <trip id="veh128" depart="950.19" departLane="best" from="396669256" to="-23693056#0" type="passenger"/>
    <trip id="veh129" depart="957.61" departLane="best" from="417242006" to="8940620#1" type="passenger"/>
    <trip id="veh130" depart="965.04" departLane="best" from="-304316110#2" to="419108648" type="passenger"/>
    <trip id="veh131" depart="972.46" departLane="best" from="-8940620#2" to="26250521#3" type="passenger"/>
    <trip id="veh132" depart="979.88" departLane="best" from="396669256" to="26250521#3" type="passenger"/>
    <trip id="veh133" depart="987.31" departLane="best" from="-26250521#3" to="23693056#3" type="passenger"/>
    <trip id="veh134" depart="994.73" departLane="best" from="419108294#0" to="26250521#3" type="passenger"/>
    <trip id="veh135" depart="1002.15" departLane="best" from="304316109#3" to="304316110#2" type="passenger"/>
    <trip id="veh136" depart="1009.58" departLane="best" from="419108294#5" to="304316112" type="passenger"/>
    <trip id="veh137" depart="1017.00" departLane="best" from="417242006" to="-23693056#0" type="passenger"/>
    <trip id="veh138" depart="1024.42" departLane="best" from="419108294#1" to="-333374284#1" type="passenger"/>
    <trip id="veh139" depart="1031.85" departLane="best" from="417242006" to="26250521#3" type="passenger"/>
    <trip id="veh140" depart="1039.27" departLane="best" from="-26250521#3" to="304316110#2" type="passenger"/>
    <trip id="veh141" depart="1046.69" departLane="best" from="396669256" to="26250521#3" type="passenger"/>
    <trip id="veh142" depart="1054.12" departLane="best" from="23693056#0" to="304316110#2" type="passenger"/>
    <trip id="veh143" depart="1061.54" departLane="best" from="-8940620#2" to="304316112" type="passenger"/>
    <trip id="veh144" depart="1068.96" departLane="best" from="-304316110#2" to="419108640#1" type="passenger"/>
    <trip id="veh145" depart="1076.39" departLane="best" from="-23693056#1" to="8940620#2" type="passenger"/>
    <trip id="veh146" depart="1083.81" departLane="best" from="23693056#0" to="419108648" type="passenger"/>
    <trip id="veh147" depart="1091.23" departLane="best" from="396669256" to="333374284#2" type="passenger"/>
    <trip id="veh148" depart="1098.66" departLane="best" from="-8940620#2" to="-23693056#0" type="passenger"/>
    <trip id="veh149" depart="1106.08" departLane="best" from="-304316110#2" to="419108648" type="passenger"/>
    <trip id="veh150" depart="1113.50" departLane="best" from="396669256" to="26250521#3" type="passenger"/>
    <trip id="veh151" depart="1120.93" departLane="best" from="-8940620#2" to="26250521#3" type="passenger"/>
    <trip id="veh152" depart="1128.35" departLane="best" from="-26250521#3" to="304316110#2" type="passenger"/>
    <trip id="veh153" depart="1135.77" departLane="best" from="417242006" to="304316112" type="passenger"/>
    <trip id="veh154" depart="1143.20" departLane="best" from="-304316110#2" to="304316112" type="passenger"/>
    <trip id="veh155" depart="1150.62" departLane="best" from="-23693056#1" to="26250521#3" type="passenger"/>
    <trip id="veh156" depart="1158.04" departLane="best" from="-8940620#2" to="304316112" type="passenger"/>
    <trip id="veh157" depart="1165.47" departLane="best" from="-8940620#2" to="26250521#3" type="passenger"/>
    <trip id="veh158" depart="1172.89" departLane="best" from="23693056#0" to="8940620#2" type="passenger"/>
    <trip id="veh159" depart="1180.31" departLane="best" from="-26250521#3" to="304316110#2" type="passenger"/>
    <trip id="veh160" depart="1187.74" departLane="best" from="26250535#1" to="26250521#3" type="passenger"/>
    <trip id="veh161" depart="1195.16" departLane="best" from="396669258" to="419108648" type="passenger"/>
    <trip id="veh162" depart="1202.58" departLane="best" from="396669254#0" to="26250521#3" type="passenger"/>
    <trip id="veh163" depart="1210.01" departLane="best" from="-304316110#2" to="-23693056#0" type="passenger"/>
    <trip id="veh164" depart="1217.43" departLane="best" from="417242006" to="-23693056#0" type="passenger"/>
    <trip id="veh165" depart="1224.85" departLane="best" from="-8940620#2" to="304316112" type="passenger"/>
    <trip id="veh166" depart="1232.28" departLane="best" from="-304316110#2" to="419108294#3" type="passenger"/>
    <trip id="veh167" depart="1239.70" departLane="best" from="304316110#1" to="-23693056#0" type="passenger"/>
    <trip id="veh168" depart="1247.12" departLane="best" from="396669256" to="419108648" type="passenger"/>
    <trip id="veh169" depart="1254.55" departLane="best" from="-26250521#3" to="304316110#2" type="passenger"/>
    <trip id="veh170" depart="1261.97" departLane="best" from="-304316110#2" to="8940620#2" type="passenger"/>
    <trip id="veh171" depart="1269.39" departLane="best" from="-304316110#2" to="419108648" type="passenger"/>
    <trip id="veh172" depart="1276.82" departLane="best" from="-8940620#2" to="419108648" type="passenger"/>
    <trip id="veh173" depart="1284.24" departLane="best" from="333374284#1" to="8940620#2" type="passenger"/>
    <trip id="veh174" depart="1291.66" departLane="best" from="23693056#0" to="8940620#2" type="passenger"/>
    <trip id="veh175" depart="1299.09" departLane="best" from="417242006" to="304316112" type="passenger"/>
    <trip id="veh176" depart="1306.51" departLane="best" from="396669256" to="304316110#2" type="passenger"/>
    <trip id="veh177" depart="1313.93" departLane="best" from="417242006" to="304316112" type="passenger"/>
    <trip id="veh178" depart="1321.36" departLane="best" from="417242006" to="419108648" type="passenger"/>
    <trip id="veh179" depart="1328.78" departLane="best" from="-304316110#2" to="304316112" type="passenger"/>
    <trip id="veh180" depart="1336.20" departLane="best" from="26250521#2" to="26250521#3" type="passenger"/>
    <trip id="veh181" depart="1343.63" departLane="best" from="-304316110#2" to="26250521#3" type="passenger"/>
    <trip id="veh182" depart="1351.05" departLane="best" from="-304316110#2" to="419108294#3" type="passenger"/>
    <trip id="veh183" depart="1358.47" departLane="best" from="396669256" to="-23693056#0" type="passenger"/>
    <trip id="veh184" depart="1365.90" departLane="best" from="-8940620#2" to="304316112" type="passenger"/>
    <trip id="veh185" depart="1373.32" departLane="best" from="23693056#0" to="419108294#3" type="passenger"/>
    <trip id="veh186" depart="1380.74" departLane="best" from="417242006" to="419108648" type="passenger"/>
    <trip id="veh187" depart="1388.17" departLane="best" from="-8940620#2" to="-23693056#0" type="passenger"/>
    <trip id="veh188" depart="1395.59" departLane="best" from="-8940620#2" to="419108648" type="passenger"/>
    <trip id="veh189" depart="1403.01" departLane="best" from="417242006" to="8940620#2" type="passenger"/>
    <trip id="veh190" depart="1410.44" departLane="best" from="-8940620#2" to="419108648" type="passenger"/>
    <trip id="veh191" depart="1417.86" departLane="best" from="23693056#0" to="304316112" type="passenger"/>
    <trip id="veh192" depart="1425.28" departLane="best" from="-304316110#2" to="26250521#3" type="passenger"/>
    <trip id="veh193" depart="1432.71" departLane="best" from="-8940620#2" to="-23693056#0" type="passenger"/>
    <trip id="veh194" depart="1440.13" departLane="best" from="26250521#0" to="-23693056#0" type="passenger"/>
    <trip id="veh195" depart="1447.55" departLane="best" from="-8940620#2" to="304316112" type="passenger"/>
    <trip id="veh196" depart="1454.98" departLane="best" from="-26250521#3" to="304316112" type="passenger"/>
    <trip id="veh197" depart="1462.40" departLane="best" from="-26250521#3" to="304316110#2" type="passenger"/>
    <trip id="veh198" depart="1469.82" departLane="best" from="-26250521#3" to="304316110#2" type="passenger"/>
    <trip id="veh199" depart="1477.25" departLane="best" from="-304316110#2" to="26250521#3" type="passenger"/>
    <trip id="veh200" depart="1484.67" departLane="best" from="396669256" to="304316110#2" type="passenger"/>
    <trip id="veh201" depart="1492.09" departLane="best" from="396669256" to="419108648" type="passenger"/>
    <trip id="veh202" depart="1499.52" departLane="best" from="-304316110#2" to="-23693056#0" type="passenger"/>
    <trip id="veh203" depart="1506.94" departLane="best" from="-26250521#1" to="304316112" type="passenger"/>
    <trip id="veh204" depart="1514.36" departLane="best" from="304316109#6" to="419108648" type="passenger"/>
    <trip id="veh205" depart="1521.79" departLane="best" from="304316110#0" to="419108648" type="passenger"/>
    <trip id="veh206" depart="1529.21" departLane="best" from="396669256" to="419108648" type="passenger"/>
    <trip id="veh207" depart="1536.63" departLane="best" from="-26250535#1" to="304316112" type="passenger"/>
    <trip id="veh208" depart="1544.06" departLane="best" from="396669256" to="-23693056#0" type="passenger"/>
    <trip id="veh209" depart="1551.48" departLane="best" from="-304316110#2" to="396669258" type="passenger"/>
    <trip id="veh210" depart="1558.90" departLane="best" from="417242006" to="304316110#2" type="passenger"/>
    <trip id="veh211" depart="1566.33" departLane="best" from="396669256" to="-23693056#0" type="passenger"/>
    <trip id="veh212" depart="1573.75" departLane="best" from="-26250521#3" to="419108648" type="passenger"/>
    <trip id="veh213" depart="1581.17" departLane="best" from="417242006" to="304316112" type="passenger"/>
    <trip id="veh214" depart="1588.60" departLane="best" from="-26250521#3" to="8940620#2" type="passenger"/>
    <trip id="veh215" depart="1596.02" departLane="best" from="396669256" to="26250521#3" type="passenger"/>
    <trip id="veh216" depart="1603.44" departLane="best" from="-8940620#2" to="304316109#6" type="passenger"/>
    <trip id="veh217" depart="1610.87" departLane="best" from="417242006" to="419108648" type="passenger"/>
    <trip id="veh218" depart="1618.29" departLane="best" from="-26250521#3" to="8940620#2" type="passenger"/>
    <trip id="veh219" depart="1625.71" departLane="best" from="304316109#1" to="419108648" type="passenger"/>
    <trip id="veh220" depart="1633.14" departLane="best" from="396669256" to="304316110#2" type="passenger"/>
    <trip id="veh221" depart="1640.56" departLane="best" from="396669256" to="8940620#2" type="passenger"/>
    <trip id="veh222" depart="1647.98" departLane="best" from="-304316110#2" to="419108648" type="passenger"/>
    <trip id="veh223" depart="1655.41" departLane="best" from="23693056#0" to="304316110#2" type="passenger"/>
    <trip id="veh224" depart="1662.83" departLane="best" from="-8940620#2" to="419108648" type="passenger"/>
    <trip id="veh225" depart="1670.25" departLane="best" from="-304316110#2" to="419108648" type="passenger"/>
    <trip id="veh226" depart="1677.68" departLane="best" from="417242006" to="-23693056#0" type="passenger"/>
    <trip id="veh227" depart="1685.10" departLane="best" from="417242006" to="26250521#3" type="passenger"/>
    <trip id="veh228" depart="1692.52" departLane="best" from="-8940620#2" to="304316112" type="passenger"/>
    <trip id="veh229" depart="1699.95" departLane="best" from="-8940620#2" to="-23693056#0" type="passenger"/>
    <trip id="veh230" depart="1707.37" departLane="best" from="417242006" to="-333374284#2" type="passenger"/>
    <trip id="veh231" depart="1714.79" departLane="best" from="-304316110#2" to="419108648" type="passenger"/>
    <trip id="veh232" depart="1722.22" departLane="best" from="396669256" to="26250521#3" type="passenger"/>
    <trip id="veh233" depart="1729.64" departLane="best" from="-26250521#3" to="419108648" type="passenger"/>
    <trip id="veh234" depart="1737.06" departLane="best" from="23693056#0" to="419108648" type="passenger"/>
    <trip id="veh235" depart="1744.49" departLane="best" from="23693056#0" to="419108648" type="passenger"/>
    <trip id="veh236" depart="1751.91" departLane="best" from="396669256" to="26250521#3" type="passenger"/>
    <trip id="veh237" depart="1759.33" departLane="best" from="23693056#0" to="304316110#2" type="passenger"/>
    <trip id="veh238" depart="1766.76" departLane="best" from="23693056#0" to="304316110#2" type="passenger"/>
    <trip id="veh239" depart="1774.18" departLane="best" from="396669256" to="26250521#3" type="passenger"/>
    <trip id="veh240" depart="1781.60" departLane="best" from="396669256" to="26250521#3" type="passenger"/>
    <trip id="veh241" depart="1789.03" departLane="best" from="-304316110#2" to="-23693056#0" type="passenger"/>
    <trip id="veh242" depart="1796.45" departLane="best" from="-304316110#2" to="-23693056#0" type="passenger"/>
    <trip id="veh243" depart="1803.87" departLane="best" from="23693056#0" to="419108648" type="passenger"/>
    <trip id="veh244" depart="1811.30" departLane="best" from="-304316110#2" to="26250521#3" type="passenger"/>
    <trip id="veh245" depart="1818.72" departLane="best" from="23693056#0" to="419108648" type="passenger"/>
    <trip id="veh246" depart="1826.15" departLane="best" from="419108294#3" to="304316112" type="passenger"/>
    <trip id="veh247" depart="1833.57" departLane="best" from="-304316110#2" to="-23693056#0" type="passenger"/>
    <trip id="veh248" depart="1840.99" departLane="best" from="-304316110#2" to="26250521#3" type="passenger"/>
    <trip id="veh249" depart="1848.42" departLane="best" from="-304316110#2" to="-23693056#0" type="passenger"/>
    <trip id="veh250" depart="1855.84" departLane="best" from="419108294#2" to="304316112" type="passenger"/>
    <trip id="veh251" depart="1863.26" departLane="best" from="396669256" to="-23693056#0" type="passenger"/>
    <trip id="veh252" depart="1870.69" departLane="best" from="417242006" to="304316110#2" type="passenger"/>
    <trip id="veh253" depart="1878.11" departLane="best" from="417242006" to="304316112" type="passenger"/>
    <trip id="veh254" depart="1885.53" departLane="best" from="23693056#0" to="304316110#2" type="passenger"/>
    <trip id="veh255" depart="1892.96" departLane="best" from="-304316110#2" to="-23693056#0" type="passenger"/>
    <trip id="veh256" depart="1900.38" departLane="best" from="417242006" to="304316110#2" type="passenger"/>
    <trip id="veh257" depart="1907.80" departLane="best" from="396669259" to="304316110#2" type="passenger"/>
    <trip id="veh258" depart="1915.23" departLane="best" from="-26250521#3" to="304316112" type="passenger"/>
    <trip id="veh259" depart="1922.65" departLane="best" from="-26250521#3" to="-26250517#0" type="passenger"/>
    <trip id="veh260" depart="1930.07" departLane="best" from="419108640#2" to="-23693056#0" type="passenger"/>
    <trip id="veh261" depart="1937.50" departLane="best" from="396669256" to="26250521#3" type="passenger"/>
    <trip id="veh262" depart="1944.92" departLane="best" from="23693056#0" to="304316110#2" type="passenger"/>
    <trip id="veh263" depart="1952.34" departLane="best" from="419108640#1" to="26250521#3" type="passenger"/>
    <trip id="veh264" depart="1959.77" departLane="best" from="26250521#0" to="304316112" type="passenger"/>
    <trip id="veh265" depart="1967.19" departLane="best" from="396669256" to="8940620#2" type="passenger"/>
    <trip id="veh266" depart="1974.61" departLane="best" from="-304316110#2" to="26250521#3" type="passenger"/>
    <trip id="veh267" depart="1982.04" departLane="best" from="-304316110#1" to="-23693056#0" type="passenger"/>
    <trip id="veh268" depart="1989.46" departLane="best" from="-23693056#1" to="304316110#2" type="passenger"/>
    <trip id="veh269" depart="1996.88" departLane="best" from="-304316110#2" to="419108640#0" type="passenger"/>
    <trip id="veh270" depart="2004.31" departLane="best" from="396669256" to="304316110#2" type="passenger"/>
    <trip id="veh271" depart="2011.73" departLane="best" from="396669256" to="8940620#2" type="passenger"/>
    <trip id="veh272" depart="2019.15" departLane="best" from="-8940620#2" to="304316112" type="passenger"/>
    <trip id="veh273" depart="2026.58" departLane="best" from="304316109#5" to="8940620#2" type="passenger"/>
    <trip id="veh274" depart="2034.00" departLane="best" from="417242006" to="-23693056#0" type="passenger"/>