<?xml version="1.0" encoding="UTF-8"?>

<!-- generated on 12/04/16 22:30:47 by SUMO netconvert Version 0.28.0
<?xml version="1.0" encoding="UTF-8"?>

<configuration xmlns:xsi="http://www.w3.org/2001/XMLSchema-instance" xsi:noNamespaceSchemaLocation="http://sumo.dlr.de/xsd/netconvertConfiguration.xsd">

    <input>
        <node-files value="i3.nod.xml"/>
        <edge-files value="i3.edg.xml"/>
    </input>

    <output>
        <output-file value="i3.net.xml"/>
    </output>

</configuration>
-->

<net version="0.27" xmlns:xsi="http://www.w3.org/2001/XMLSchema-instance" xsi:noNamespaceSchemaLocation="http://sumo.dlr.de/xsd/net_file.xsd">

    <location netOffset="200.00,200.00" convBoundary="0.00,0.00,400.00,400.00" origBoundary="-200.00,-200.00,200.00,200.00" projParameter="!"/>

    <edge id=":bottom_0" function="internal">
        <lane id=":bottom_0_0" index="0" speed="13.90" length="4.82" shape="198.35,0.00 199.17,-1.24 200.00,-1.65 200.82,-1.24 201.65,0.00"/>
    </edge>
    <edge id=":center_0" function="internal">
        <lane id=":center_0_0" index="0" speed="13.90" length="5.00" shape="198.35,204.75 198.16,203.39 197.57,202.42 196.61,201.84 195.25,201.65"/>
    </edge>
    <edge id=":center_1" function="internal">
        <lane id=":center_1_0" index="0" speed="13.90" length="9.50" shape="198.35,204.75 198.35,195.25"/>
    </edge>
    <edge id=":center_2" function="internal">
        <lane id=":center_2_0" index="0" speed="13.90" length="10.32" shape="198.35,204.75 198.75,201.95 199.95,199.95 201.95,198.75 204.75,198.35"/>
    </edge>
    <edge id=":center_3" function="internal">
        <lane id=":center_3_0" index="0" speed="13.90" length="4.82" shape="198.35,204.75 199.17,203.51 200.00,203.10 200.82,203.51 201.65,204.75"/>
    </edge>
    <edge id=":center_4" function="internal">
        <lane id=":center_4_0" index="0" speed="13.90" length="5.00" shape="204.75,201.65 203.39,201.84 202.42,202.43 201.84,203.39 201.65,204.75"/>
    </edge>
    <edge id=":center_5" function="internal">
        <lane id=":center_5_0" index="0" speed="13.90" length="9.50" shape="204.75,201.65 195.25,201.65"/>
    </edge>
    <edge id=":center_6" function="internal">
        <lane id=":center_6_0" index="0" speed="13.90" length="5.28" shape="204.75,201.65 201.95,201.25 199.95,200.05 199.89,199.95"/>
    </edge>
    <edge id=":center_7" function="internal">
        <lane id=":center_7_0" index="0" speed="13.90" length="2.41" shape="204.75,201.65 203.51,200.83 203.10,200.00"/>
    </edge>
    <edge id=":center_16" function="internal">
        <lane id=":center_16_0" index="0" speed="13.90" length="5.04" shape="199.89,199.95 198.75,198.05 198.35,195.25"/>
    </edge>
    <edge id=":center_17" function="internal">
        <lane id=":center_17_0" index="0" speed="13.90" length="2.41" shape="203.10,200.00 203.51,199.18 204.75,198.35"/>
    </edge>
    <edge id=":center_8" function="internal">
        <lane id=":center_8_0" index="0" speed="13.90" length="5.00" shape="201.65,195.25 201.84,196.61 202.43,197.58 203.39,198.16 204.75,198.35"/>
    </edge>
    <edge id=":center_9" function="internal">
        <lane id=":center_9_0" index="0" speed="13.90" length="9.50" shape="201.65,195.25 201.65,204.75"/>
    </edge>
    <edge id=":center_10" function="internal">
        <lane id=":center_10_0" index="0" speed="13.90" length="10.32" shape="201.65,195.25 201.25,198.05 200.05,200.05 198.05,201.25 195.25,201.65"/>
    </edge>
    <edge id=":center_11" function="internal">
        <lane id=":center_11_0" index="0" speed="13.90" length="4.82" shape="201.65,195.25 200.83,196.49 200.00,196.90 199.18,196.49 198.35,195.25"/>
    </edge>
    <edge id=":center_12" function="internal">
        <lane id=":center_12_0" index="0" speed="13.90" length="5.00" shape="195.25,198.35 196.61,198.16 197.58,197.57 198.16,196.61 198.35,195.25"/>
    </edge>
    <edge id=":center_13" function="internal">
        <lane id=":center_13_0" index="0" speed="13.90" length="9.50" shape="195.25,198.35 204.75,198.35"/>
    </edge>
    <edge id=":center_14" function="internal">
        <lane id=":center_14_0" index="0" speed="13.90" length="5.28" shape="195.25,198.35 198.05,198.75 200.05,199.95 200.11,200.05"/>
    </edge>
    <edge id=":center_15" function="internal">
        <lane id=":center_15_0" index="0" speed="13.90" length="2.41" shape="195.25,198.35 196.49,199.17 196.90,200.00"/>
    </edge>
    <edge id=":center_18" function="internal">
        <lane id=":center_18_0" index="0" speed="13.90" length="5.04" shape="200.11,200.05 201.25,201.95 201.65,204.75"/>
    </edge>
    <edge id=":center_19" function="internal">
        <lane id=":center_19_0" index="0" speed="13.90" length="2.41" shape="196.90,200.00 196.49,200.82 195.25,201.65"/>
    </edge>
    <edge id=":left_0" function="internal">
        <lane id=":left_0_0" index="0" speed="13.90" length="4.82" shape="0.00,201.65 -1.24,200.83 -1.65,200.00 -1.24,199.18 0.00,198.35"/>
    </edge>
    <edge id=":right_0" function="internal">
        <lane id=":right_0_0" index="0" speed="13.90" length="4.82" shape="400.00,198.35 401.24,199.17 401.65,200.00 401.24,200.82 400.00,201.65"/>
    </edge>
    <edge id=":top_0" function="internal">
        <lane id=":top_0_0" index="0" speed="13.90" length="4.82" shape="201.65,400.00 200.83,401.24 200.00,401.65 199.18,401.24 198.35,400.00"/>
    </edge>

    <edge id="bottom_in" from="bottom" to="center" priority="0">
        <lane id="bottom_in_0" index="0" speed="13.90" length="195.25" shape="201.65,0.00 201.65,195.25"/>
    </edge>
    <edge id="bottom_out" from="center" to="bottom" priority="1">
        <lane id="bottom_out_0" index="0" speed="13.90" length="195.25" shape="198.35,195.25 198.35,0.00"/>
    </edge>
    <edge id="left_in" from="left" to="center" priority="1">
        <lane id="left_in_0" index="0" speed="13.90" length="195.25" shape="0.00,198.35 195.25,198.35"/>
    </edge>
    <edge id="left_out" from="center" to="left" priority="1">
        <lane id="left_out_0" index="0" speed="13.90" length="195.25" shape="195.25,201.65 0.00,201.65"/>
    </edge>
    <edge id="right_in" from="right" to="center" priority="1">
        <lane id="right_in_0" index="0" speed="13.90" length="195.25" shape="400.00,201.65 204.75,201.65"/>
    </edge>
    <edge id="right_out" from="center" to="right" priority="1">
        <lane id="right_out_0" index="0" speed="13.90" length="195.25" shape="204.75,198.35 400.00,198.35"/>
    </edge>
    <edge id="top_in" from="top" to="center" priority="1">
        <lane id="top_in_0" index="0" speed="13.90" length="195.25" shape="198.35,400.00 198.35,204.75"/>
    </edge>
    <edge id="top_out" from="center" to="top" priority="1">
        <lane id="top_out_0" index="0" speed="13.90" length="195.25" shape="201.65,204.75 201.65,400.00"/>
    </edge>

    <junction id="bottom" type="priority" x="200.00" y="0.00" incLanes="bottom_out_0" intLanes=":bottom_0_0" shape="200.05,0.00 196.75,0.00 199.95,0.00">
        <request index="0" response="0" foes="0" cont="0"/>
    </junction>
    <junction id="center" type="priority" x="200.00" y="200.00" incLanes="top_in_0 right_in_0 bottom_in_0 left_in_0" intLanes=":center_0_0 :center_1_0 :center_2_0 :center_3_0 :center_4_0 :center_5_0 :center_16_0 :center_17_0 :center_8_0 :center_9_0 :center_10_0 :center_11_0 :center_12_0 :center_13_0 :center_18_0 :center_19_0" shape="196.75,204.75 203.25,204.75 204.75,203.25 204.75,196.75 203.25,195.25 196.75,195.25 195.25,196.75 195.25,203.25">
        <request index="0" response="0000000000100000" foes="1000010000100000" cont="0"/>
        <request index="1" response="0111000001100000" foes="0111110001100000" cont="0"/>
        <request index="2" response="0110001101100000" foes="0110001111100000" cont="0"/>
        <request index="3" response="0100001000010000" foes="0100001000010000" cont="0"/>
        <request index="4" response="0000000000000000" foes="0100001000001000" cont="0"/>
        <request index="5" response="0000000000000000" foes="1100011000000111" cont="0"/>
        <request index="6" response="0011000000000000" foes="0011111000000110" cont="1"/>
        <request index="7" response="0010000100000100" foes="0010000100000100" cont="1"/>
        <request index="8" response="0010000000000000" foes="0010000010000100" cont="0"/>
        <request index="9" response="0110000001110000" foes="0110000001111100" cont="0"/>
        <request index="10" response="0110000001100011" foes="1110000001100011" cont="0"/>
        <request index="11" response="0001000001000010" foes="0001000001000010" cont="0"/>
        <request index="12" response="0000000000000000" foes="0000100001000010" cont="0"/>
        <request index="13" response="0000000000000000" foes="0000011111000110" cont="0"/>
        <request index="14" response="0000000000110000" foes="0000011000111110" cont="1"/>
        <request index="15" response="0000010000100001" foes="0000010000100001" cont="1"/>
    </junction>
    <junction id="left" type="priority" x="0.00" y="200.00" incLanes="left_out_0" intLanes=":left_0_0" shape="0.00,199.95 0.00,203.25 0.00,200.05">
        <request index="0" response="0" foes="0" cont="0"/>
    </junction>
    <junction id="right" type="priority" x="400.00" y="200.00" incLanes="right_out_0" intLanes=":right_0_0" shape="400.00,200.05 400.00,196.75 400.00,199.95">
        <request index="0" response="0" foes="0" cont="0"/>
    </junction>
    <junction id="top" type="priority" x="200.00" y="400.00" incLanes="top_out_0" intLanes=":top_0_0" shape="199.95,400.00 203.25,400.00 200.05,400.00">
        <request index="0" response="0" foes="0" cont="0"/>
    </junction>

    <junction id=":center_16_0" type="internal" x="199.89" y="199.95" incLanes=":center_6_0 left_in_0" intLanes=":center_1_0 :center_2_0 :center_9_0 :center_10_0 :center_11_0 :center_12_0 :center_13_0"/>
    <junction id=":center_17_0" type="internal" x="203.10" y="200.00" incLanes=":center_7_0 bottom_in_0 left_in_0 top_in_0" intLanes=":center_2_0 :center_8_0 :center_13_0"/>
    <junction id=":center_18_0" type="internal" x="200.11" y="200.05" incLanes=":center_14_0 right_in_0" intLanes=":center_1_0 :center_2_0 :center_3_0 :center_4_0 :center_5_0 :center_9_0 :center_10_0"/>
    <junction id=":center_19_0" type="internal" x="196.90" y="200.00" incLanes=":center_15_0 bottom_in_0 right_in_0 top_in_0" intLanes=":center_0_0 :center_5_0 :center_10_0"/>

    <connection from="bottom_in" to="right_out" fromLane="0" toLane="0" via=":center_8_0" dir="r" state="m"/>
    <connection from="bottom_in" to="top_out" fromLane="0" toLane="0" via=":center_9_0" dir="s" state="m"/>
    <connection from="bottom_in" to="left_out" fromLane="0" toLane="0" via=":center_10_0" dir="l" state="m"/>
    <connection from="bottom_in" to="bottom_out" fromLane="0" toLane="0" via=":center_11_0" dir="t" state="m"/>
    <connection from="bottom_out" to="bottom_in" fromLane="0" toLane="0" via=":bottom_0_0" dir="t" state="M"/>
    <connection from="left_in" to="bottom_out" fromLane="0" toLane="0" via=":center_12_0" dir="r" state="M"/>
    <connection from="left_in" to="right_out" fromLane="0" toLane="0" via=":center_13_0" dir="s" state="M"/>
    <connection from="left_in" to="top_out" fromLane="0" toLane="0" via=":center_14_0" dir="l" state="m"/>
    <connection from="left_in" to="left_out" fromLane="0" toLane="0" via=":center_15_0" dir="t" state="m"/>
    <connection from="left_out" to="left_in" fromLane="0" toLane="0" via=":left_0_0" dir="t" state="M"/>
    <connection from="right_in" to="top_out" fromLane="0" toLane="0" via=":center_4_0" dir="r" state="M"/>
    <connection from="right_in" to="left_out" fromLane="0" toLane="0" via=":center_5_0" dir="s" state="M"/>
    <connection from="right_in" to="bottom_out" fromLane="0" toLane="0" via=":center_6_0" dir="l" state="m"/>
    <connection from="right_in" to="right_out" fromLane="0" toLane="0" via=":center_7_0" dir="t" state="m"/>
    <connection from="right_out" to="right_in" fromLane="0" toLane="0" via=":right_0_0" dir="t" state="M"/>
    <connection from="top_in" to="left_out" fromLane="0" toLane="0" via=":center_0_0" dir="r" state="m"/>
    <connection from="top_in" to="bottom_out" fromLane="0" toLane="0" via=":center_1_0" dir="s" state="m"/>
    <connection from="top_in" to="right_out" fromLane="0" toLane="0" via=":center_2_0" dir="l" state="m"/>
    <connection from="top_in" to="top_out" fromLane="0" toLane="0" via=":center_3_0" dir="t" state="m"/>
    <connection from="top_out" to="top_in" fromLane="0" toLane="0" via=":top_0_0" dir="t" state="M"/>

    <connection from=":bottom_0" to="bottom_in" fromLane="0" toLane="0" dir="s" state="M"/>
    <connection from=":center_0" to="left_out" fromLane="0" toLane="0" dir="s" state="M"/>
    <connection from=":center_1" to="bottom_out" fromLane="0" toLane="0" dir="s" state="M"/>
    <connection from=":center_2" to="right_out" fromLane="0" toLane="0" dir="s" state="M"/>
    <connection from=":center_3" to="top_out" fromLane="0" toLane="0" dir="s" state="M"/>
    <connection from=":center_4" to="top_out" fromLane="0" toLane="0" dir="s" state="M"/>
    <connection from=":center_5" to="left_out" fromLane="0" toLane="0" dir="s" state="M"/>
    <connection from=":center_6" to="bottom_out" fromLane="0" toLane="0" via=":center_16_0" dir="s" state="m"/>
    <connection from=":center_16" to="bottom_out" fromLane="0" toLane="0" dir="s" state="M"/>
    <connection from=":center_7" to="right_out" fromLane="0" toLane="0" via=":center_17_0" dir="s" state="m"/>
    <connection from=":center_17" to="right_out" fromLane="0" toLane="0" dir="s" state="M"/>
    <connection from=":center_8" to="right_out" fromLane="0" toLane="0" dir="s" state="M"/>
    <connection from=":center_9" to="top_out" fromLane="0" toLane="0" dir="s" state="M"/>
    <connection from=":center_10" to="left_out" fromLane="0" toLane="0" dir="s" state="M"/>
    <connection from=":center_11" to="bottom_out" fromLane="0" toLane="0" dir="s" state="M"/>
    <connection from=":center_12" to="bottom_out" fromLane="0" toLane="0" dir="s" state="M"/>
    <connection from=":center_13" to="right_out" fromLane="0" toLane="0" dir="s" state="M"/>
    <connection from=":center_14" to="top_out" fromLane="0" toLane="0" via=":center_18_0" dir="s" state="m"/>
    <connection from=":center_18" to="top_out" fromLane="0" toLane="0" dir="s" state="M"/>
    <connection from=":center_15" to="left_out" fromLane="0" toLane="0" via=":center_19_0" dir="s" state="m"/>
    <connection from=":center_19" to="left_out" fromLane="0" toLane="0" dir="s" state="M"/>
    <connection from=":left_0" to="left_in" fromLane="0" toLane="0" dir="s" state="M"/>
    <connection from=":right_0" to="right_in" fromLane="0" toLane="0" dir="s" state="M"/>
    <connection from=":top_0" to="top_in" fromLane="0" toLane="0" dir="s" state="M"/>

</net>
