<?xml version="1.0" encoding="UTF-8"?>

<!-- generated on Wed Dec  7 15:46:34 2016 by SUMO jtrrouter Version 0.28.0
<?xml version="1.0" encoding="UTF-8"?>

<configuration xmlns:xsi="http://www.w3.org/2001/XMLSchema-instance" xsi:noNamespaceSchemaLocation="http://sumo.dlr.de/xsd/jtrrouterConfiguration.xsd">

    <input>
        <net-file value="i3.net.xml"/>
        <flow-files value="i3.flows.xml"/>
        <turn-ratio-files value="i3.turns.xml"/>
    </input>

    <output>
        <output-file value="i3.rou.xml"/>
    </output>

    <time>
        <begin value="0"/>
        <end value="40"/>
    </time>

    <random_number>
        <random value="true"/>
    </random_number>

</configuration>
-->

<routes xmlns:xsi="http://www.w3.org/2001/XMLSchema-instance" xsi:noNamespaceSchemaLocation="http://sumo.dlr.de/xsd/routes_file.xsd">
    <vType id="passenger" vClass="passenger"/>
    <vehicle id="0.0" type="passenger" depart="1.00" departSpeed="max">
        <route edges="left_in right_out"/>
    </vehicle>
    <vehicle id="0.1" type="passenger" depart="2.00" departSpeed="max">
        <route edges="left_in right_out"/>
    </vehicle>
    <vehicle id="0.2" type="passenger" depart="5.00" departSpeed="max">
        <route edges="left_in top_out"/>
    </vehicle>
    <vehicle id="0.3" type="passenger" depart="6.00" departSpeed="max">
        <route edges="left_in top_out"/>
    </vehicle>
    <vehicle id="0.4" type="passenger" depart="11.00" departSpeed="max">
        <route edges="left_in top_out"/>
    </vehicle>
    <vehicle id="0.5" type="passenger" depart="12.00" departSpeed="max">
        <route edges="left_in top_out"/>
    </vehicle>
    <vehicle id="0.6" type="passenger" depart="14.00" departSpeed="max">
        <route edges="left_in right_out"/>
    </vehicle>
    <vehicle id="0.7" type="passenger" depart="18.00" departSpeed="max">
        <route edges="left_in right_out"/>
    </vehicle>
    <vehicle id="0.8" type="passenger" depart="20.00" departSpeed="max">
        <route edges="left_in top_out"/>
    </vehicle>
    <vehicle id="0.9" type="passenger" depart="25.00" departSpeed="max">
        <route edges="left_in right_out"/>
    </vehicle>
    <vehicle id="0.10" type="passenger" depart="26.00" departSpeed="max">
        <route edges="left_in right_out"/>
    </vehicle>
    <vehicle id="0.11" type="passenger" depart="31.00" departSpeed="max">
        <route edges="left_in bottom_out"/>
    </vehicle>
    <vehicle id="0.12" type="passenger" depart="36.00" departSpeed="max">
        <route edges="left_in right_out"/>
    </vehicle>
    <vehicle id="0.13" type="passenger" depart="37.00" departSpeed="max">
        <route edges="left_in right_out"/>
    </vehicle>
</routes>
