<?xml version="1.0" encoding="UTF-8"?>

<!-- generated on Tue Dec  6 00:14:06 2016 by SUMO jtrrouter Version 0.28.0
<?xml version="1.0" encoding="UTF-8"?>

<configuration xmlns:xsi="http://www.w3.org/2001/XMLSchema-instance" xsi:noNamespaceSchemaLocation="http://sumo.dlr.de/xsd/jtrrouterConfiguration.xsd">

    <input>
        <net-file value="i3.net.xml"/>
        <flow-files value="i3.flows_datagen.xml"/>
        <turn-ratio-files value="i3.turns_datagen.xml"/>
    </input>

    <output>
        <output-file value="i3.rou.xml"/>
    </output>

    <time>
        <begin value="0"/>
        <end value="4200"/>
    </time>

    <random_number>
        <random value="true"/>
    </random_number>

</configuration>
-->

<routes xmlns:xsi="http://www.w3.org/2001/XMLSchema-instance" xsi:noNamespaceSchemaLocation="http://sumo.dlr.de/xsd/routes_file.xsd">
    <vType id="passenger" vClass="passenger"/>
    <vehicle id="0.0" type="passenger" depart="3.00" departSpeed="max">
        <route edges="left_in top_out"/>
    </vehicle>
    <vehicle id="0.1" type="passenger" depart="6.00" departSpeed="max">
        <route edges="left_in right_out"/>
    </vehicle>
    <vehicle id="0.2" type="passenger" depart="9.00" departSpeed="max">
        <route edges="left_in top_out"/>
    </vehicle>
    <vehicle id="0.3" type="passenger" depart="11.00" departSpeed="max">
        <route edges="left_in top_out"/>
    </vehicle>
    <vehicle id="0.4" type="passenger" depart="15.00" departSpeed="max">
        <route edges="left_in top_out"/>
    </vehicle>
    <vehicle id="0.5" type="passenger" depart="18.00" departSpeed="max">
        <route edges="left_in right_out"/>
    </vehicle>
    <vehicle id="0.6" type="passenger" depart="20.00" departSpeed="max">
        <route edges="left_in right_out"/>
    </vehicle>
    <vehicle id="0.7" type="passenger" depart="22.00" departSpeed="max">
        <route edges="left_in right_out"/>
    </vehicle>
    <vehicle id="0.8" type="passenger" depart="25.00" departSpeed="max">
        <route edges="left_in right_out"/>
    </vehicle>
    <vehicle id="0.9" type="passenger" depart="28.00" departSpeed="max">
        <route edges="left_in right_out"/>
    </vehicle>
    <vehicle id="0.10" type="passenger" depart="29.00" departSpeed="max">
        <route edges="left_in top_out"/>
    </vehicle>
    <vehicle id="0.11" type="passenger" depart="30.00" departSpeed="max">
        <route edges="left_in right_out"/>
    </vehicle>
    <vehicle id="0.12" type="passenger" depart="31.00" departSpeed="max">
        <route edges="left_in right_out"/>
    </vehicle>
    <vehicle id="0.13" type="passenger" depart="35.00" departSpeed="max">
        <route edges="left_in bottom_out"/>
    </vehicle>
    <vehicle id="0.14" type="passenger" depart="40.00" departSpeed="max">
        <route edges="left_in right_out"/>
    </vehicle>
    <vehicle id="0.15" type="passenger" depart="41.00" departSpeed="max">
        <route edges="left_in top_out"/>
    </vehicle>
    <vehicle id="0.16" type="passenger" depart="46.00" departSpeed="max">
        <route edges="left_in right_out"/>
    </vehicle>
    <vehicle id="0.17" type="passenger" depart="47.00" departSpeed="max">
        <route edges="left_in bottom_out"/>
    </vehicle>
    <vehicle id="0.18" type="passenger" depart="48.00" departSpeed="max">
        <route edges="left_in bottom_out"/>
    </vehicle>
    <vehicle id="0.19" type="passenger" depart="51.00" departSpeed="max">
        <route edges="left_in right_out"/>
    </vehicle>
    <vehicle id="0.20" type="passenger" depart="52.00" departSpeed="max">
        <route edges="left_in right_out"/>
    </vehicle>
    <vehicle id="0.21" type="passenger" depart="53.00" departSpeed="max">
        <route edges="left_in top_out"/>
    </vehicle>
    <vehicle id="0.22" type="passenger" depart="56.00" departSpeed="max">
        <route edges="left_in bottom_out"/>
    </vehicle>
    <vehicle id="0.23" type="passenger" depart="59.00" departSpeed="max">
        <route edges="left_in top_out"/>
    </vehicle>
    <vehicle id="0.24" type="passenger" depart="70.00" departSpeed="max">
        <route edges="left_in top_out"/>
    </vehicle>
    <vehicle id="0.25" type="passenger" depart="76.00" departSpeed="max">
        <route edges="left_in right_out"/>
    </vehicle>
    <vehicle id="0.26" type="passenger" depart="80.00" departSpeed="max">
        <route edges="left_in bottom_out"/>
    </vehicle>
    <vehicle id="0.27" type="passenger" depart="81.00" departSpeed="max">
        <route edges="left_in right_out"/>
    </vehicle>
    <vehicle id="0.28" type="passenger" depart="86.00" departSpeed="max">
        <route edges="left_in top_out"/>
    </vehicle>
    <vehicle id="0.29" type="passenger" depart="88.00" departSpeed="max">
        <route edges="left_in right_out"/>
    </vehicle>
    <vehicle id="0.30" type="passenger" depart="90.00" departSpeed="max">
        <route edges="left_in bottom_out"/>
    </vehicle>
    <vehicle id="0.31" type="passenger" depart="92.00" departSpeed="max">
        <route edges="left_in bottom_out"/>
    </vehicle>
    <vehicle id="0.32" type="passenger" depart="96.00" departSpeed="max">
        <route edges="left_in right_out"/>
    </vehicle>
    <vehicle id="0.33" type="passenger" depart="97.00" departSpeed="max">
        <route edges="left_in right_out"/>
    </vehicle>
    <vehicle id="0.34" type="passenger" depart="101.00" departSpeed="max">
        <route edges="left_in bottom_out"/>
    </vehicle>
    <vehicle id="0.35" type="passenger" depart="106.00" departSpeed="max">
        <route edges="left_in right_out"/>
    </vehicle>
    <vehicle id="0.36" type="passenger" depart="111.00" departSpeed="max">
        <route edges="left_in top_out"/>
    </vehicle>
    <vehicle id="0.37" type="passenger" depart="112.00" departSpeed="max">
        <route edges="left_in top_out"/>
    </vehicle>
    <vehicle id="0.38" type="passenger" depart="113.00" departSpeed="max">
        <route edges="left_in bottom_out"/>
    </vehicle>
    <vehicle id="0.39" type="passenger" depart="114.00" departSpeed="max">
        <route edges="left_in top_out"/>
    </vehicle>
    <vehicle id="0.40" type="passenger" depart="115.00" departSpeed="max">
        <route edges="left_in bottom_out"/>
    </vehicle>
    <vehicle id="0.41" type="passenger" depart="121.00" departSpeed="max">
        <route edges="left_in bottom_out"/>
    </vehicle>
    <vehicle id="0.42" type="passenger" depart="128.00" departSpeed="max">
        <route edges="left_in top_out"/>
    </vehicle>
    <vehicle id="0.43" type="passenger" depart="129.00" departSpeed="max">
        <route edges="left_in bottom_out"/>
    </vehicle>
    <vehicle id="0.44" type="passenger" depart="130.00" departSpeed="max">
        <route edges="left_in top_out"/>
    </vehicle>
    <vehicle id="0.45" type="passenger" depart="133.00" departSpeed="max">
        <route edges="left_in bottom_out"/>
    </vehicle>
    <vehicle id="0.46" type="passenger" depart="135.00" departSpeed="max">
        <route edges="left_in right_out"/>
    </vehicle>
    <vehicle id="0.47" type="passenger" depart="138.00" departSpeed="max">
        <route edges="left_in right_out"/>
    </vehicle>
    <vehicle id="0.48" type="passenger" depart="146.00" departSpeed="max">
        <route edges="left_in right_out"/>
    </vehicle>
    <vehicle id="0.49" type="passenger" depart="152.00" departSpeed="max">
        <route edges="left_in bottom_out"/>
    </vehicle>
    <vehicle id="0.50" type="passenger" depart="156.00" departSpeed="max">
        <route edges="left_in bottom_out"/>
    </vehicle>
    <vehicle id="0.51" type="passenger" depart="157.00" departSpeed="max">
        <route edges="left_in right_out"/>
    </vehicle>
    <vehicle id="0.52" type="passenger" depart="160.00" departSpeed="max">
        <route edges="left_in right_out"/>
    </vehicle>
    <vehicle id="0.53" type="passenger" depart="162.00" departSpeed="max">
        <route edges="left_in top_out"/>
    </vehicle>
    <vehicle id="0.54" type="passenger" depart="165.00" departSpeed="max">
        <route edges="left_in right_out"/>
    </vehicle>
    <vehicle id="0.55" type="passenger" depart="168.00" departSpeed="max">
        <route edges="left_in top_out"/>
    </vehicle>
    <vehicle id="0.56" type="passenger" depart="172.00" departSpeed="max">
        <route edges="left_in top_out"/>
    </vehicle>
    <vehicle id="0.57" type="passenger" depart="174.00" departSpeed="max">
        <route edges="left_in right_out"/>
    </vehicle>
    <vehicle id="0.58" type="passenger" depart="178.00" departSpeed="max">
        <route edges="left_in right_out"/>
    </vehicle>
    <vehicle id="0.59" type="passenger" depart="179.00" departSpeed="max">
        <route edges="left_in right_out"/>
    </vehicle>
    <vehicle id="0.60" type="passenger" depart="182.00" departSpeed="max">
        <route edges="left_in right_out"/>
    </vehicle>
    <vehicle id="0.61" type="passenger" depart="184.00" departSpeed="max">
        <route edges="left_in right_out"/>
    </vehicle>
    <vehicle id="0.62" type="passenger" depart="201.00" departSpeed="max">
        <route edges="left_in right_out"/>
    </vehicle>
    <vehicle id="0.63" type="passenger" depart="210.00" departSpeed="max">
        <route edges="left_in bottom_out"/>
    </vehicle>
    <vehicle id="0.64" type="passenger" depart="214.00" departSpeed="max">
        <route edges="left_in bottom_out"/>
    </vehicle>
    <vehicle id="0.65" type="passenger" depart="220.00" departSpeed="max">
        <route edges="left_in top_out"/>
    </vehicle>
    <vehicle id="0.66" type="passenger" depart="223.00" departSpeed="max">
        <route edges="left_in bottom_out"/>
    </vehicle>
    <vehicle id="0.67" type="passenger" depart="225.00" departSpeed="max">
        <route edges="left_in right_out"/>
    </vehicle>
    <vehicle id="0.68" type="passenger" depart="227.00" departSpeed="max">
        <route edges="left_in bottom_out"/>
    </vehicle>
    <vehicle id="0.69" type="passenger" depart="233.00" departSpeed="max">
        <route edges="left_in bottom_out"/>
    </vehicle>
    <vehicle id="0.70" type="passenger" depart="234.00" departSpeed="max">
        <route edges="left_in right_out"/>
    </vehicle>
    <vehicle id="0.71" type="passenger" depart="237.00" departSpeed="max">
        <route edges="left_in right_out"/>
    </vehicle>
    <vehicle id="0.72" type="passenger" depart="241.00" departSpeed="max">
        <route edges="left_in right_out"/>
    </vehicle>
    <vehicle id="0.73" type="passenger" depart="246.00" departSpeed="max">
        <route edges="left_in top_out"/>
    </vehicle>
    <vehicle id="0.74" type="passenger" depart="249.00" departSpeed="max">
        <route edges="left_in right_out"/>
    </vehicle>
    <vehicle id="0.75" type="passenger" depart="256.00" departSpeed="max">
        <route edges="left_in right_out"/>
    </vehicle>
    <vehicle id="0.76" type="passenger" depart="263.00" departSpeed="max">
        <route edges="left_in top_out"/>
    </vehicle>
    <vehicle id="0.77" type="passenger" depart="268.00" departSpeed="max">
        <route edges="left_in top_out"/>
    </vehicle>
    <vehicle id="0.78" type="passenger" depart="271.00" departSpeed="max">
        <route edges="left_in right_out"/>
    </vehicle>
    <vehicle id="0.79" type="passenger" depart="273.00" departSpeed="max">
        <route edges="left_in top_out"/>
    </vehicle>
    <vehicle id="0.80" type="passenger" depart="274.00" departSpeed="max">
        <route edges="left_in bottom_out"/>
    </vehicle>
    <vehicle id="0.81" type="passenger" depart="277.00" departSpeed="max">
        <route edges="left_in right_out"/>
    </vehicle>
    <vehicle id="0.82" type="passenger" depart="282.00" departSpeed="max">
        <route edges="left_in bottom_out"/>
    </vehicle>
    <vehicle id="0.83" type="passenger" depart="285.00" departSpeed="max">
        <route edges="left_in right_out"/>
    </vehicle>
    <vehicle id="0.84" type="passenger" depart="292.00" departSpeed="max">
        <route edges="left_in bottom_out"/>
    </vehicle>
    <vehicle id="0.85" type="passenger" depart="293.00" departSpeed="max">
        <route edges="left_in top_out"/>
    </vehicle>
    <vehicle id="0.86" type="passenger" depart="295.00" departSpeed="max">
        <route edges="left_in top_out"/>
    </vehicle>
    <vehicle id="0.87" type="passenger" depart="296.00" departSpeed="max">
        <route edges="left_in top_out"/>
    </vehicle>
    <vehicle id="0.88" type="passenger" depart="297.00" departSpeed="max">
        <route edges="left_in top_out"/>
    </vehicle>
    <vehicle id="0.89" type="passenger" depart="298.00" departSpeed="max">
        <route edges="left_in right_out"/>
    </vehicle>
    <vehicle id="0.90" type="passenger" depart="302.00" departSpeed="max">
        <route edges="left_in top_out"/>
    </vehicle>
    <vehicle id="0.91" type="passenger" depart="303.00" departSpeed="max">
        <route edges="left_in right_out"/>
    </vehicle>
    <vehicle id="0.92" type="passenger" depart="306.00" departSpeed="max">
        <route edges="left_in right_out"/>
    </vehicle>
    <vehicle id="0.93" type="passenger" depart="313.00" departSpeed="max">
        <route edges="left_in right_out"/>
    </vehicle>
    <vehicle id="0.94" type="passenger" depart="315.00" departSpeed="max">
        <route edges="left_in bottom_out"/>
    </vehicle>
    <vehicle id="0.95" type="passenger" depart="316.00" departSpeed="max">
        <route edges="left_in bottom_out"/>
    </vehicle>
    <vehicle id="0.96" type="passenger" depart="318.00" departSpeed="max">
        <route edges="left_in right_out"/>
    </vehicle>
    <vehicle id="0.97" type="passenger" depart="320.00" departSpeed="max">
        <route edges="left_in right_out"/>
    </vehicle>
    <vehicle id="0.98" type="passenger" depart="326.00" departSpeed="max">
        <route edges="left_in bottom_out"/>
    </vehicle>
    <vehicle id="0.99" type="passenger" depart="327.00" departSpeed="max">
        <route edges="left_in bottom_out"/>
    </vehicle>
    <vehicle id="0.100" type="passenger" depart="329.00" departSpeed="max">
        <route edges="left_in right_out"/>
    </vehicle>
    <vehicle id="0.101" type="passenger" depart="331.00" departSpeed="max">
        <route edges="left_in right_out"/>
    </vehicle>
    <vehicle id="0.102" type="passenger" depart="332.00" departSpeed="max">
        <route edges="left_in bottom_out"/>
    </vehicle>
    <vehicle id="0.103" type="passenger" depart="337.00" departSpeed="max">
        <route edges="left_in bottom_out"/>
    </vehicle>
    <vehicle id="0.104" type="passenger" depart="338.00" departSpeed="max">
        <route edges="left_in top_out"/>
    </vehicle>
    <vehicle id="0.105" type="passenger" depart="342.00" departSpeed="max">
        <route edges="left_in bottom_out"/>
    </vehicle>
    <vehicle id="0.106" type="passenger" depart="345.00" departSpeed="max">
        <route edges="left_in right_out"/>
    </vehicle>
    <vehicle id="0.107" type="passenger" depart="347.00" departSpeed="max">
        <route edges="left_in bottom_out"/>
    </vehicle>
    <vehicle id="0.108" type="passenger" depart="348.00" departSpeed="max">
        <route edges="left_in top_out"/>
    </vehicle>
    <vehicle id="0.109" type="passenger" depart="352.00" departSpeed="max">
        <route edges="left_in right_out"/>
    </vehicle>
    <vehicle id="0.110" type="passenger" depart="353.00" departSpeed="max">
        <route edges="left_in bottom_out"/>
    </vehicle>
    <vehicle id="0.111" type="passenger" depart="374.00" departSpeed="max">
        <route edges="left_in right_out"/>
    </vehicle>
    <vehicle id="0.112" type="passenger" depart="375.00" departSpeed="max">
        <route edges="left_in bottom_out"/>
    </vehicle>
    <vehicle id="0.113" type="passenger" depart="377.00" departSpeed="max">
        <route edges="left_in top_out"/>
    </vehicle>
    <vehicle id="0.114" type="passenger" depart="378.00" departSpeed="max">
        <route edges="left_in right_out"/>
    </vehicle>
    <vehicle id="0.115" type="passenger" depart="382.00" departSpeed="max">
        <route edges="left_in bottom_out"/>
    </vehicle>
    <vehicle id="0.116" type="passenger" depart="388.00" departSpeed="max">
        <route edges="left_in bottom_out"/>
    </vehicle>
    <vehicle id="0.117" type="passenger" depart="397.00" departSpeed="max">
        <route edges="left_in top_out"/>
    </vehicle>
    <vehicle id="0.118" type="passenger" depart="401.00" departSpeed="max">
        <route edges="left_in top_out"/>
    </vehicle>
    <vehicle id="0.119" type="passenger" depart="409.00" departSpeed="max">
        <route edges="left_in bottom_out"/>
    </vehicle>
    <vehicle id="0.120" type="passenger" depart="410.00" departSpeed="max">
        <route edges="left_in top_out"/>
    </vehicle>
    <vehicle id="0.121" type="passenger" depart="414.00" departSpeed="max">
        <route edges="left_in top_out"/>
    </vehicle>
    <vehicle id="0.122" type="passenger" depart="417.00" departSpeed="max">
        <route edges="left_in right_out"/>
    </vehicle>
    <vehicle id="0.123" type="passenger" depart="421.00" departSpeed="max">
        <route edges="left_in bottom_out"/>
    </vehicle>
    <vehicle id="0.124" type="passenger" depart="425.00" departSpeed="max">
        <route edges="left_in top_out"/>
    </vehicle>
    <vehicle id="0.125" type="passenger" depart="426.00" departSpeed="max">
        <route edges="left_in top_out"/>
    </vehicle>
    <vehicle id="0.126" type="passenger" depart="437.00" departSpeed="max">
        <route edges="left_in right_out"/>
    </vehicle>
    <vehicle id="0.127" type="passenger" depart="440.00" departSpeed="max">
        <route edges="left_in top_out"/>
    </vehicle>
    <vehicle id="0.128" type="passenger" depart="441.00" departSpeed="max">
        <route edges="left_in right_out"/>
    </vehicle>
    <vehicle id="0.129" type="passenger" depart="445.00" departSpeed="max">
        <route edges="left_in top_out"/>
    </vehicle>
    <vehicle id="0.130" type="passenger" depart="447.00" departSpeed="max">
        <route edges="left_in bottom_out"/>
    </vehicle>
    <vehicle id="0.131" type="passenger" depart="448.00" departSpeed="max">
        <route edges="left_in bottom_out"/>
    </vehicle>
    <vehicle id="0.132" type="passenger" depart="450.00" departSpeed="max">
        <route edges="left_in top_out"/>
    </vehicle>
    <vehicle id="0.133" type="passenger" depart="454.00" departSpeed="max">
        <route edges="left_in right_out"/>
    </vehicle>
    <vehicle id="0.134" type="passenger" depart="456.00" departSpeed="max">
        <route edges="left_in right_out"/>
    </vehicle>
    <vehicle id="0.135" type="passenger" depart="457.00" departSpeed="max">
        <route edges="left_in bottom_out"/>
    </vehicle>
    <vehicle id="0.136" type="passenger" depart="461.00" departSpeed="max">
        <route edges="left_in bottom_out"/>
    </vehicle>
    <vehicle id="0.137" type="passenger" depart="465.00" departSpeed="max">
        <route edges="left_in top_out"/>
    </vehicle>
    <vehicle id="0.138" type="passenger" depart="466.00" departSpeed="max">
        <route edges="left_in bottom_out"/>
    </vehicle>
    <vehicle id="0.139" type="passenger" depart="467.00" departSpeed="max">
        <route edges="left_in bottom_out"/>
    </vehicle>
    <vehicle id="0.140" type="passenger" depart="474.00" departSpeed="max">
        <route edges="left_in bottom_out"/>
    </vehicle>
    <vehicle id="0.141" type="passenger" depart="481.00" departSpeed="max">
        <route edges="left_in right_out"/>
    </vehicle>
    <vehicle id="0.142" type="passenger" depart="483.00" departSpeed="max">
        <route edges="left_in top_out"/>
    </vehicle>
    <vehicle id="0.143" type="passenger" depart="484.00" departSpeed="max">
        <route edges="left_in top_out"/>
    </vehicle>
    <vehicle id="0.144" type="passenger" depart="485.00" departSpeed="max">
        <route edges="left_in top_out"/>
    </vehicle>
    <vehicle id="0.145" type="passenger" depart="487.00" departSpeed="max">
        <route edges="left_in right_out"/>
    </vehicle>
    <vehicle id="0.146" type="passenger" depart="489.00" departSpeed="max">
        <route edges="left_in bottom_out"/>
    </vehicle>
    <vehicle id="0.147" type="passenger" depart="491.00" departSpeed="max">
        <route edges="left_in right_out"/>
    </vehicle>
    <vehicle id="0.148" type="passenger" depart="492.00" departSpeed="max">
        <route edges="left_in right_out"/>
    </vehicle>
    <vehicle id="0.149" type="passenger" depart="495.00" departSpeed="max">
        <route edges="left_in top_out"/>
    </vehicle>
    <vehicle id="0.150" type="passenger" depart="497.00" departSpeed="max">
        <route edges="left_in top_out"/>
    </vehicle>
    <vehicle id="0.151" type="passenger" depart="498.00" departSpeed="max">
        <route edges="left_in right_out"/>
    </vehicle>
    <vehicle id="0.152" type="passenger" depart="502.00" departSpeed="max">
        <route edges="left_in right_out"/>
    </vehicle>
    <vehicle id="0.153" type="passenger" depart="504.00" departSpeed="max">
        <route edges="left_in bottom_out"/>
    </vehicle>
    <vehicle id="0.154" type="passenger" depart="507.00" departSpeed="max">
        <route edges="left_in bottom_out"/>
    </vehicle>
    <vehicle id="0.155" type="passenger" depart="514.00" departSpeed="max">
        <route edges="left_in right_out"/>
    </vehicle>
    <vehicle id="0.156" type="passenger" depart="516.00" departSpeed="max">
        <route edges="left_in top_out"/>
    </vehicle>
    <vehicle id="0.157" type="passenger" depart="521.00" departSpeed="max">
        <route edges="left_in top_out"/>
    </vehicle>
    <vehicle id="0.158" type="passenger" depart="524.00" departSpeed="max">
        <route edges="left_in right_out"/>
    </vehicle>
    <vehicle id="0.159" type="passenger" depart="525.00" departSpeed="max">
        <route edges="left_in bottom_out"/>
    </vehicle>
    <vehicle id="0.160" type="passenger" depart="532.00" departSpeed="max">
        <route edges="left_in right_out"/>
    </vehicle>
    <vehicle id="0.161" type="passenger" depart="533.00" departSpeed="max">
        <route edges="left_in right_out"/>
    </vehicle>
    <vehicle id="0.162" type="passenger" depart="537.00" departSpeed="max">
        <route edges="left_in bottom_out"/>
    </vehicle>
    <vehicle id="0.163" type="passenger" depart="538.00" departSpeed="max">
        <route edges="left_in right_out"/>
    </vehicle>
    <vehicle id="0.164" type="passenger" depart="540.00" departSpeed="max">
        <route edges="left_in top_out"/>
    </vehicle>
    <vehicle id="0.165" type="passenger" depart="548.00" departSpeed="max">
        <route edges="left_in right_out"/>
    </vehicle>
    <vehicle id="0.166" type="passenger" depart="551.00" departSpeed="max">
        <route edges="left_in right_out"/>
    </vehicle>
    <vehicle id="0.167" type="passenger" depart="555.00" departSpeed="max">
        <route edges="left_in top_out"/>
    </vehicle>
    <vehicle id="0.168" type="passenger" depart="556.00" departSpeed="max">
        <route edges="left_in right_out"/>
    </vehicle>
    <vehicle id="0.169" type="passenger" depart="559.00" departSpeed="max">
        <route edges="left_in right_out"/>
    </vehicle>
    <vehicle id="0.170" type="passenger" depart="560.00" departSpeed="max">
        <route edges="left_in right_out"/>
    </vehicle>
    <vehicle id="0.171" type="passenger" depart="561.00" departSpeed="max">
        <route edges="left_in top_out"/>
    </vehicle>
    <vehicle id="0.172" type="passenger" depart="562.00" departSpeed="max">
        <route edges="left_in top_out"/>
    </vehicle>
    <vehicle id="0.173" type="passenger" depart="564.00" departSpeed="max">
        <route edges="left_in bottom_out"/>
    </vehicle>
    <vehicle id="0.174" type="passenger" depart="565.00" departSpeed="max">
        <route edges="left_in right_out"/>
    </vehicle>
    <vehicle id="0.175" type="passenger" depart="576.00" departSpeed="max">
        <route edges="left_in right_out"/>
    </vehicle>
    <vehicle id="0.176" type="passenger" depart="581.00" departSpeed="max">
        <route edges="left_in right_out"/>
    </vehicle>
    <vehicle id="0.177" type="passenger" depart="585.00" departSpeed="max">
        <route edges="left_in bottom_out"/>
    </vehicle>
    <vehicle id="0.178" type="passenger" depart="589.00" departSpeed="max">
        <route edges="left_in top_out"/>
    </vehicle>
    <vehicle id="0.179" type="passenger" depart="593.00" departSpeed="max">
        <route edges="left_in right_out"/>
    </vehicle>
    <vehicle id="0.180" type="passenger" depart="597.00" departSpeed="max">
        <route edges="left_in bottom_out"/>
    </vehicle>
    <vehicle id="0.181" type="passenger" depart="603.00" departSpeed="max">
        <route edges="left_in right_out"/>
    </vehicle>
    <vehicle id="0.182" type="passenger" depart="607.00" departSpeed="max">
        <route edges="left_in right_out"/>
    </vehicle>
    <vehicle id="0.183" type="passenger" depart="608.00" departSpeed="max">
        <route edges="left_in top_out"/>
    </vehicle>
    <vehicle id="0.184" type="passenger" depart="616.00" departSpeed="max">
        <route edges="left_in right_out"/>
    </vehicle>
    <vehicle id="0.185" type="passenger" depart="618.00" departSpeed="max">
        <route edges="left_in bottom_out"/>
    </vehicle>
    <vehicle id="0.186" type="passenger" depart="623.00" departSpeed="max">
        <route edges="left_in top_out"/>
    </vehicle>
    <vehicle id="0.187" type="passenger" depart="624.00" departSpeed="max">
        <route edges="left_in right_out"/>
    </vehicle>
    <vehicle id="0.188" type="passenger" depart="631.00" departSpeed="max">
        <route edges="left_in bottom_out"/>
    </vehicle>
    <vehicle id="0.189" type="passenger" depart="632.00" departSpeed="max">
        <route edges="left_in bottom_out"/>
    </vehicle>
    <vehicle id="0.190" type="passenger" depart="637.00" departSpeed="max">
        <route edges="left_in bottom_out"/>
    </vehicle>
    <vehicle id="0.191" type="passenger" depart="639.00" departSpeed="max">
        <route edges="left_in bottom_out"/>
    </vehicle>
    <vehicle id="0.192" type="passenger" depart="642.00" departSpeed="max">
        <route edges="left_in top_out"/>
    </vehicle>
    <vehicle id="0.193" type="passenger" depart="644.00" departSpeed="max">
        <route edges="left_in top_out"/>
    </vehicle>
    <vehicle id="0.194" type="passenger" depart="646.00" departSpeed="max">
        <route edges="left_in right_out"/>
    </vehicle>
    <vehicle id="0.195" type="passenger" depart="657.00" departSpeed="max">
        <route edges="left_in bottom_out"/>
    </vehicle>
    <vehicle id="0.196" type="passenger" depart="662.00" departSpeed="max">
        <route edges="left_in right_out"/>
    </vehicle>
    <vehicle id="0.197" type="passenger" depart="665.00" departSpeed="max">
        <route edges="left_in bottom_out"/>
    </vehicle>
    <vehicle id="0.198" type="passenger" depart="667.00" departSpeed="max">
        <route edges="left_in right_out"/>
    </vehicle>
    <vehicle id="0.199" type="passenger" depart="671.00" departSpeed="max">
        <route edges="left_in right_out"/>
    </vehicle>
    <vehicle id="0.200" type="passenger" depart="676.00" departSpeed="max">
        <route edges="left_in right_out"/>
    </vehicle>
    <vehicle id="0.201" type="passenger" depart="679.00" departSpeed="max">
        <route edges="left_in top_out"/>
    </vehicle>
    <vehicle id="0.202" type="passenger" depart="683.00" departSpeed="max">
        <route edges="left_in right_out"/>
    </vehicle>
    <vehicle id="0.203" type="passenger" depart="686.00" departSpeed="max">
        <route edges="left_in right_out"/>
    </vehicle>
    <vehicle id="0.204" type="passenger" depart="687.00" departSpeed="max">
        <route edges="left_in right_out"/>
    </vehicle>
    <vehicle id="0.205" type="passenger" depart="691.00" departSpeed="max">
        <route edges="left_in right_out"/>
    </vehicle>
    <vehicle id="0.206" type="passenger" depart="699.00" departSpeed="max">
        <route edges="left_in bottom_out"/>
    </vehicle>
    <vehicle id="0.207" type="passenger" depart="700.00" departSpeed="max">
        <route edges="left_in right_out"/>
    </vehicle>
    <vehicle id="0.208" type="passenger" depart="703.00" departSpeed="max">
        <route edges="left_in right_out"/>
    </vehicle>
    <vehicle id="0.209" type="passenger" depart="716.00" departSpeed="max">
        <route edges="left_in bottom_out"/>
    </vehicle>
    <vehicle id="0.210" type="passenger" depart="717.00" departSpeed="max">
        <route edges="left_in top_out"/>
    </vehicle>
    <vehicle id="0.211" type="passenger" depart="726.00" departSpeed="max">
        <route edges="left_in right_out"/>
    </vehicle>
    <vehicle id="0.212" type="passenger" depart="729.00" departSpeed="max">
        <route edges="left_in right_out"/>
    </vehicle>
    <vehicle id="0.213" type="passenger" depart="733.00" departSpeed="max">
        <route edges="left_in bottom_out"/>
    </vehicle>
    <vehicle id="0.214" type="passenger" depart="735.00" departSpeed="max">
        <route edges="left_in top_out"/>
    </vehicle>
    <vehicle id="0.215" type="passenger" depart="738.00" departSpeed="max">
        <route edges="left_in right_out"/>
    </vehicle>
    <vehicle id="0.216" type="passenger" depart="740.00" departSpeed="max">
        <route edges="left_in bottom_out"/>
    </vehicle>
    <vehicle id="0.217" type="passenger" depart="741.00" departSpeed="max">
        <route edges="left_in top_out"/>
    </vehicle>
    <vehicle id="0.218" type="passenger" depart="744.00" departSpeed="max">