<configuration>
    <input>
        <net-file value="i3.net.xml"/>
        <route-files value="i3.rou.xml"/>
        <gui-settings-file value="i3.settings.xml"/>
    </input>

    <report>
        <verbose value="true"/>
        <duration-log.statistics value="true"/>
        <no-step-log value="true"/>
    </report>

    <time>
        <begin value="0"/>
        <end value="10000"/>
        <step-length value="0.2"/>
    </time>
</configuration>